1

   Abaqus 2021                                  Date 30-7月-2022   Time 12:27:02
   For use by Supplied by Team-SolidSQUAD under license from Dassault Systemes or its subsidiary.



                         The Abaqus Software is a product of:

                           Dassault Systemes SIMULIA Corp.
                           1301 Atwood Avenue, Suite 101W
                              Johnston, RI 02919, USA
 


                   The Abaqus Software is available only under license
                   from Dassault Systemes or its subsidiary and may be
                   used or reproduced only in accordance with the terms
                   of such license.
 
                          On machine DESKTOP-MC4HUME 
                          you are authorized to run
                          Abaqus/Standard until 31-Dec-2055

                          Your site id is:  


 
                    For assistance or any other information you may
                    obtain contact information for your local office
                    from the world wide web at:

                      http://www.3ds.com/products/simulia/locations/

 
                * * * * * * * * * * * * * * * * * * * * * * * * * * * * * * 
                *                                                         * 
                *                   *****************                     * 
                *                   *  N O T I C E  *                     * 
                *                   *****************                     * 
                *                                                         * 
                *                                                         * 
                *                       Abaqus 2021                       * 
                *                                                         * 
                *          BUILD ID: 2020_03_06-22.50.37 167380           * 
                *                                                         * 
                *                                                         * 
                *  Please make sure you are using                         * 
                *  release Abaqus 2021 manuals                            * 
                *  plus the notes accompanying this release.              * 
                *                                                         * 
                *                                                         * 
                *                                                         * 
                *                                                         * 
                * * * * * * * * * * * * * * * * * * * * * * * * * * * * * * 


 



     PROCESSING PART, INSTANCE, AND ASSEMBLY INFORMATION
   *******************************************************


     END PROCESSING PART, INSTANCE, AND ASSEMBLY INFORMATION
   ***********************************************************

  *initialconditions, type=TEMPERATURE



     OPTIONS BEING PROCESSED
   ***************************


  *Heading
  *Node
  *Element, type=C3D8R
  *Element, type=C3D6
  *Element, type=C3D8R
  *Element, type=C3D6
  *Element, type=C3D8R
  *Element, type=C3D6
  *Element, type=C3D8R
  *Element, type=C3D6
  *Element, type=C3D8R
  *Element, type=C3D6
  *Element, type=C3D8R
  *Element, type=C3D6
  *Element, type=C3D8R
  *Element, type=C3D6
  *Element, type=C3D8R
  *Element, type=C3D6
  *Element, type=C3D8R
  *Element, type=C3D6
  *Element, type=C3D8R
  *Element, type=C3D6
  *Element, type=C3D8R
  *Element, type=C3D6
  *Element, type=C3D8R
  *Element, type=C3D6
  *Element, type=C3D8R
  *Element, type=C3D6
  *Element, type=C3D8R
  *Element, type=C3D6
  *Element, type=C3D8R
  *Element, type=C3D6
  *Element, type=C3D8R
  *Element, type=C3D6
  *Element, type=C3D8R
  *Element, type=C3D6
  *Element, type=C3D8R
  *Element, type=C3D6
  *Element, type=C3D8R
  *Element, type=C3D6
  *Element, type=C3D8R
  *Element, type=C3D6
  *Element, type=C3D8R
  *Element, type=C3D6
  *Element, type=C3D8R
  *Element, type=C3D6
  *Element, type=C3D8R
  *Element, type=C3D6
  *Element, type=C3D8R
  *Element, type=C3D6
  *Element, type=C3D8R
  *Element, type=C3D6
  *Element, type=C3D8R
  *Element, type=C3D6
  *Element, type=C3D8R
  *Element, type=C3D6
  *Element, type=C3D8R
  *Element, type=C3D6
  *Element, type=C3D8R
  *Element, type=C3D6
  *Element, type=C3D8R
  *Element, type=C3D6
  *Element, type=C3D8R
  *Element, type=C3D6
  *Element, type=C3D8R
  *Element, type=C3D6
  *Element, type=C3D8R
  *Element, type=C3D6
  *Element, type=C3D8R
  *Element, type=C3D6
  *Element, type=C3D8R
  *Element, type=C3D6
  *Element, type=C3D8R
  *Element, type=C3D6
  *Element, type=C3D8R
  *Element, type=C3D6
  *Element, type=C3D8R
  *Element, type=C3D6
  *Element, type=C3D8R
  *Element, type=C3D6
  *Element, type=C3D8R
  *Element, type=C3D6
  *Element, type=C3D8R
  *Element, type=C3D6
  *Element, type=C3D8R
  *Element, type=C3D6
  *Element, type=C3D8R
  *Element, type=C3D6
  *Element, type=C3D8R
  *Element, type=C3D6
  *Element, type=C3D8R
  *Element, type=C3D6
  *Element, type=C3D8R
  *Element, type=C3D6
  *Element, type=C3D8R
  *Element, type=C3D6
  *Element, type=C3D8R
  *Element, type=C3D6
  *Element, type=C3D8R
  *Element, type=C3D6
  *Element, type=C3D8R
  *Element, type=C3D6
  *Element, type=C3D8R
  *Element, type=C3D6
  *Element, type=C3D8R
  *Element, type=C3D6
  *Element, type=C3D8R
  *Element, type=C3D6
  *Element, type=C3D8R
  *Element, type=C3D6
  *Element, type=C3D8R
  *Element, type=C3D6
  *Element, type=C3D8R
  *Element, type=C3D6
  *Element, type=C3D8R
  *Element, type=C3D6
  *Element, type=C3D8R
  *Element, type=C3D6
  *Element, type=C3D8R
  *Element, type=C3D6
  *Element, type=C3D8R
  *Element, type=C3D6
  *Element, type=C3D8R
  *Element, type=C3D6
  *Element, type=C3D8R
  *Element, type=C3D6
  *Element, type=C3D8R
  *Element, type=C3D6
  *Element, type=C3D8R
  *Element, type=C3D6
  *Element, type=C3D8R
  *Element, type=C3D6
  *Element, type=C3D8R
  *Element, type=C3D6
  *Element, type=C3D8R
  *Element, type=C3D6
  *Element, type=C3D8R
  *Element, type=C3D6
  *Element, type=C3D8R
  *Element, type=C3D6
  *Element, type=C3D8R
  *Element, type=C3D6
  *Element, type=C3D8R
  *Element, type=C3D6
  *Element, type=C3D8R
  *Element, type=C3D6
  *Element, type=C3D8R
  *Element, type=C3D6
  *Element, type=C3D8R
  *Element, type=C3D6
  *Element, type=C3D8R
  *Element, type=C3D6
  *Element, type=C3D8R
  *Element, type=C3D6
  *Element, type=C3D8R
  *Element, type=C3D6
  *Element, type=C3D8R
  *Element, type=C3D6
  *Element, type=C3D8R
  *Element, type=C3D6
  *Element, type=C3D8R
  *Element, type=C3D6
  *Element, type=C3D8R
  *Element, type=C3D6
  *Element, type=C3D8R
  *Element, type=C3D6
  *Element, type=C3D8R
  *Element, type=C3D6
  *Element, type=C3D8R
  *Element, type=C3D6
  *Element, type=C3D8R
  *Element, type=C3D6
  *Element, type=C3D8R
  *Element, type=C3D6
  *Element, type=C3D8R
  *Element, type=C3D6
  *Element, type=C3D8R
  *Element, type=C3D6
  *Element, type=C3D8R
  *Element, type=C3D6
  *Element, type=C3D8R
  *Element, type=C3D6
  *Element, type=C3D8R
  *Element, type=C3D6
  *Element, type=C3D8R
  *Element, type=C3D6
  *Element, type=C3D8R
  *Element, type=C3D6
  *Element, type=C3D8R
  *Element, type=C3D6
  *Element, type=C3D8R
  *Element, type=C3D6
  *Element, type=C3D8R
  *Element, type=C3D6
  *Element, type=C3D8R
  *Element, type=C3D6
  *Element, type=C3D8R
  *Element, type=C3D6
  *Element, type=C3D8R
  *Element, type=C3D6
  *Element, type=C3D8R
  *Element, type=C3D6
  *Element, type=C3D8R
  *Element, type=C3D6
  *Element, type=C3D8R
  *Element, type=C3D6
  *Element, type=C3D8R
  *Element, type=C3D6
  *Element, type=C3D8R
  *Element, type=C3D6
  *Element, type=C3D8R
  *Element, type=C3D6
  *Element, type=C3D8R
  *Element, type=C3D6
  *Element, type=C3D8R
  *Element, type=C3D6
  *Element, type=C3D8R
  *Element, type=C3D6
  *Element, type=C3D8R
  *Element, type=C3D6
  *Element, type=C3D8R
  *Element, type=C3D6
  *Element, type=C3D8R
  *Element, type=C3D6
  *Element, type=C3D8R
  *Element, type=C3D6
  *Element, type=C3D8R
  *Element, type=C3D6
  *Element, type=C3D8R
  *Element, type=C3D6
  *Element, type=C3D8R
  *Element, type=C3D6
  *Element, type=C3D8R
  *Element, type=C3D6
  *Element, type=C3D8R
  *Element, type=C3D6
  *Element, type=C3D8R
  *Element, type=C3D6
  *Element, type=C3D8R
  *Element, type=C3D6
  *Element, type=C3D8R
  *Element, type=C3D6
  *Element, type=C3D8R
  *Element, type=C3D6
  *Element, type=C3D8R
  *Element, type=C3D6
  *Element, type=C3D8R
  *Element, type=C3D6
  *Element, type=C3D8R
  *Element, type=C3D6
  *Element, type=C3D8R
  *Element, type=C3D6
  *Element, type=C3D8R
  *Element, type=C3D6
  *Element, type=C3D8R
  *Element, type=C3D6
  *Element, type=C3D8R
  *Element, type=C3D6
  *Element, type=C3D8R
  *Element, type=C3D6
  *Element, type=C3D8R
  *Element, type=C3D6
  *Element, type=C3D8R
  *Element, type=C3D6
  *Element, type=C3D8R
  *Element, type=C3D6
  *Element, type=C3D8R
  *Element, type=C3D6
  *Element, type=C3D8R
  *Element, type=C3D6
  *Element, type=C3D8R
  *Element, type=C3D6
  *Element, type=C3D8R
  *Element, type=C3D6
  *Element, type=C3D8R
  *Element, type=C3D6
  *Element, type=C3D8R
  *Element, type=C3D6
  *Element, type=C3D8R
  *Element, type=C3D6
  *Element, type=C3D8R
  *Element, type=C3D6
  *Element, type=C3D8R
  *Element, type=C3D6
  *Element, type=C3D8R
  *Element, type=C3D6
  *Element, type=C3D8R
  *Element, type=C3D6
  *Element, type=C3D8R
  *Element, type=C3D6
  *Element, type=C3D8R
  *Element, type=C3D6
  *Element, type=C3D8R
  *Element, type=C3D6
  *Element, type=C3D8R
  *Element, type=C3D6
  *Element, type=C3D8R
  *Element, type=C3D6
  *Element, type=C3D8R
  *Element, type=C3D6
  *Element, type=C3D8R
  *Element, type=C3D6
  *Element, type=C3D8R
  *Element, type=C3D6
  *Element, type=C3D8R
  *Element, type=C3D6
  *Element, type=C3D8R
  *Element, type=C3D6
  *Element, type=C3D8R
  *Element, type=C3D6
  *Element, type=C3D8R
  *Element, type=C3D6
  *Element, type=C3D8R
  *Element, type=C3D6
  *Element, type=C3D8R
  *Element, type=C3D6
  *Element, type=C3D8R
  *Element, type=C3D6
  *Element, type=C3D8R
  *Element, type=C3D6
  *Element, type=C3D8R
  *Element, type=C3D6
  *Element, type=C3D8R
  *Element, type=C3D6
  *Element, type=C3D8R
  *Element, type=C3D6
  *Element, type=C3D8R
  *Element, type=C3D6
  *Element, type=C3D8R
  *Element, type=C3D6
  *Element, type=C3D8R
  *Element, type=C3D6
  *Element, type=C3D8R
  *Element, type=C3D6
  *Element, type=C3D8R
  *Element, type=C3D6
  *Element, type=C3D8R
  *Element, type=C3D6
  *Element, type=C3D8R
  *Element, type=C3D6
  *Element, type=C3D8R
  *Element, type=C3D6
  *Element, type=C3D8R
  *Element, type=C3D6
  *Element, type=C3D8R
  *Element, type=C3D6
  *Element, type=C3D8R
  *Element, type=C3D6
  *Element, type=C3D8R
  *Element, type=C3D6
  *Element, type=C3D8R
  *Element, type=C3D6
  *Element, type=C3D8R
  *Element, type=C3D6
  *Element, type=C3D8R
  *Element, type=C3D6
  *Element, type=C3D8R
  *Element, type=C3D6
  *Element, type=C3D8R
  *Element, type=C3D6
  *Element, type=C3D8R
  *Element, type=C3D6
  *Element, type=C3D8R
  *Element, type=C3D6
  *Element, type=C3D8R
  *Element, type=C3D6
  *Element, type=C3D8R
  *Element, type=C3D6
  *Element, type=C3D8R
  *Element, type=C3D6
  *Element, type=C3D8R
  *Element, type=C3D6
  *Element, type=C3D8R
  *Element, type=C3D6
  *Element, type=C3D8R
  *Element, type=C3D6
  *Element, type=C3D8R
  *Element, type=C3D6
  *Element, type=C3D8R
  *Element, type=C3D6
  *Element, type=C3D8R
  *Element, type=C3D6
  *Element, type=C3D8R
  *Element, type=C3D6
  *Element, type=C3D8R
  *Element, type=C3D6
  *Element, type=C3D8R
  *Element, type=C3D6
  *Element, type=C3D8R
  *Element, type=C3D6
  *Element, type=C3D8R
  *Element, type=C3D6
  *Element, type=C3D8R
  *Element, type=C3D6
  *Element, type=C3D8R
  *Element, type=C3D6
  *Element, type=C3D8R
  *Element, type=C3D6
  *Element, type=C3D8R
  *Element, type=C3D6
  *Element, type=C3D8R
  *Element, type=C3D6
  *Element, type=C3D8R
  *Element, type=C3D6
  *Element, type=C3D8R
  *Element, type=C3D6
  *Element, type=C3D8R
  *Element, type=C3D6
  *Element, type=C3D8R
  *Element, type=C3D6
  *Element, type=C3D8R
  *Element, type=C3D6
  *Element, type=C3D8R
  *Element, type=C3D6
  *Element, type=C3D8R
  *Element, type=C3D6
  *Element, type=C3D8R
  *Element, type=C3D6
  *Element, type=C3D8R
  *Element, type=C3D6
  *Element, type=C3D8R
  *Element, type=C3D6
  *Element, type=C3D8R
  *Element, type=C3D6
  *Element, type=C3D8R
  *Element, type=C3D6
  *Element, type=C3D8R
  *Element, type=C3D6
  *Element, type=C3D8R
  *Element, type=C3D6
  *Element, type=C3D8R
  *Element, type=C3D6
  *Element, type=C3D8R
  *Element, type=C3D6
  *Element, type=C3D8R
  *Element, type=C3D6
  *Element, type=C3D8R
  *Element, type=C3D6
  *Element, type=C3D8R
  *Element, type=C3D6
  *Element, type=C3D8R
  *Element, type=C3D6
  *Element, type=C3D8R
  *Element, type=C3D6
  *Element, type=C3D8R
  *Element, type=C3D6
  *Element, type=C3D8R
  *Element, type=C3D6
  *Element, type=C3D8R
  *Element, type=C3D6
  *Element, type=C3D8R
  *Element, type=C3D6
  *Element, type=C3D8R
  *Element, type=C3D6
  *Element, type=C3D8R
  *Element, type=C3D6
  *Element, type=C3D8R
  *Element, type=C3D6
  *Element, type=C3D8R
  *Element, type=C3D6
  *Element, type=C3D8R
  *Element, type=C3D6
  *Element, type=C3D8R
  *Element, type=C3D6
  *Element, type=C3D8R
  *Element, type=C3D6
  *Element, type=C3D8R
  *Element, type=C3D6
  *Element, type=C3D8R
  *Element, type=C3D6
  *Element, type=C3D8R
  *Element, type=C3D6
  *Element, type=C3D8R
  *Element, type=C3D6
  *Element, type=C3D8R
  *Element, type=C3D6
  *Element, type=C3D8R
  *Element, type=C3D6
  *Element, type=C3D8R
  *Element, type=C3D6
  *Element, type=C3D8R
  *Element, type=C3D6
  *Element, type=C3D8R
  *Element, type=C3D6
  *Element, type=C3D8R
  *Element, type=C3D6
  *Element, type=C3D8R
  *Element, type=C3D6
  *Element, type=C3D8R
  *Element, type=C3D6
  *Element, type=C3D8R
  *Element, type=C3D6
  *Element, type=C3D8R
  *Element, type=C3D6
  *Element, type=C3D8R
  *Element, type=C3D6
  *Element, type=C3D8R
  *Element, type=C3D6
  *Element, type=C3D8R
  *Element, type=C3D6
  *Element, type=C3D8R
  *Element, type=C3D6
  *Element, type=C3D8R
  *Element, type=C3D6
  *Element, type=C3D8R
  *Element, type=C3D6
  *Element, type=C3D8R
  *Element, type=C3D6
  *Element, type=C3D8R
  *Element, type=C3D6
  *Element, type=C3D8R
  *Element, type=C3D6
  *Element, type=C3D8R
  *Element, type=C3D6
  *Element, type=C3D8R
  *Element, type=C3D6
  *Element, type=C3D8R
  *Element, type=C3D6
  *Element, type=C3D8R
  *Element, type=C3D6
  *Element, type=C3D8R
  *Element, type=C3D6
  *Element, type=C3D8R
  *Element, type=C3D6
  *Element, type=C3D8R
  *Element, type=C3D6
  *Element, type=C3D8R
  *Element, type=C3D6
  *Element, type=C3D8R
  *Element, type=C3D6
  *Element, type=C3D8R
  *Element, type=C3D6
  *Element, type=C3D8R
  *Element, type=C3D6
  *Element, type=C3D8R
  *Element, type=C3D6
  *Element, type=C3D8R
  *Element, type=C3D6
  *Element, type=C3D8R
  *Element, type=C3D6
  *Element, type=C3D8R
  *Element, type=C3D6
  *Element, type=C3D8R
  *Element, type=C3D6
  *Element, type=C3D8R
  *Element, type=C3D6
  *Element, type=C3D8R
  *Element, type=C3D6
  *Element, type=C3D8R
  *Element, type=C3D6
  *Element, type=C3D8R
  *Element, type=C3D6
  *Element, type=C3D8R
  *Element, type=C3D6
  *Element, type=C3D8R
  *Element, type=C3D6
  *Element, type=C3D8R
  *Element, type=C3D6
  *Element, type=C3D8R
  *Element, type=C3D6
  *Element, type=C3D8R
  *Element, type=C3D6
  *Element, type=C3D8R
  *Element, type=C3D6
  *Element, type=C3D8R
  *Element, type=C3D6
  *Element, type=C3D8R
  *Element, type=C3D6
  *Element, type=C3D8R
  *Element, type=C3D6
  *Element, type=C3D8R
  *Element, type=C3D6
  *Element, type=C3D8R
  *Element, type=C3D6
  *Element, type=C3D8R
  *Element, type=C3D6
  *Element, type=C3D8R
  *Element, type=C3D6
  *Element, type=C3D8R
  *Element, type=C3D6
  *Element, type=C3D8R
  *Element, type=C3D6
  *Element, type=C3D8R
  *Element, type=C3D6
  *Element, type=C3D8R
  *Element, type=C3D6
  *Element, type=C3D8R
  *Element, type=C3D6
  *Element, type=C3D8R
  *Element, type=C3D6
  *Element, type=C3D8R
  *Element, type=C3D6
  *Element, type=C3D8R
  *Element, type=C3D6
  *Element, type=C3D8R
  *Element, type=C3D6
  *Element, type=C3D8R
  *Element, type=C3D6
  *Element, type=C3D8R
  *Element, type=C3D6
  *Element, type=C3D8R
  *Element, type=C3D6
  *Element, type=C3D8R
  *Element, type=C3D6
  *Element, type=C3D8R
  *Element, type=C3D6
  *Element, type=C3D8R
  *Element, type=C3D6
  *Element, type=C3D8R
  *Element, type=C3D6
  *Element, type=C3D8R
  *Element, type=C3D6
  *Element, type=C3D8R
  *Element, type=C3D6
  *Element, type=C3D8R
  *Element, type=C3D6
  *Element, type=C3D8R
  *Element, type=C3D6
  *Element, type=C3D8R
  *Element, type=C3D6
  *Element, type=C3D8R
  *Element, type=C3D6
  *Element, type=C3D8R
  *Element, type=C3D6
  *Element, type=C3D8R
  *Element, type=C3D6
  *Element, type=C3D8R
  *Element, type=C3D6
  *Element, type=C3D8R
  *Element, type=C3D6
  *Element, type=C3D8R
  *Element, type=C3D6
  *Element, type=C3D8R
  *Element, type=C3D6
  *Element, type=C3D8R
  *Element, type=C3D6
  *Element, type=C3D8R
  *Element, type=C3D6
  *Element, type=C3D8R
  *Element, type=C3D6
  *Element, type=C3D8R
  *Element, type=C3D6
  *Element, type=C3D8R
  *Element, type=C3D6
  *Element, type=C3D8R
  *Element, type=C3D6
  *Element, type=C3D8R
  *Element, type=C3D6
  *Element, type=C3D8R
  *Element, type=C3D6
  *Element, type=C3D8R
  *Element, type=C3D6
  *Element, type=C3D8R
  *Element, type=C3D6
  *Element, type=C3D8R
  *Element, type=C3D6
  *Element, type=C3D8R
  *Element, type=C3D6
  *Element, type=C3D8R
  *Element, type=C3D6
  *Element, type=C3D8R
  *Element, type=C3D6
  *Element, type=C3D8R
  *Element, type=C3D6
  *Element, type=C3D8R
  *Element, type=C3D6
  *Element, type=C3D8R
  *Element, type=C3D6
  *Element, type=C3D8R
  *Element, type=C3D6
  *Element, type=C3D8R
  *Element, type=C3D6
  *Element, type=C3D8R
  *Element, type=C3D6
  *Element, type=C3D8R
  *Element, type=C3D6
  *Element, type=C3D8R
  *Element, type=C3D6
  *Element, type=C3D8R
  *Element, type=C3D6
  *Element, type=C3D8R
  *Element, type=C3D6
  *Element, type=C3D8R
  *Element, type=C3D6
  *Element, type=C3D8R
  *Element, type=C3D6
  *Element, type=C3D8R
  *Element, type=C3D6
  *Element, type=C3D8R
  *Element, type=C3D6
  *Element, type=C3D8R
  *Element, type=C3D6
  *Element, type=C3D8R
  *Element, type=C3D6
  *Element, type=C3D8R
  *Element, type=C3D6
  *Element, type=C3D8R
  *Element, type=C3D6
  *Element, type=C3D8R
  *Element, type=C3D6
  *Element, type=C3D8R
  *Element, type=C3D6
  *Element, type=C3D8R
  *Element, type=C3D6
  *Element, type=C3D8R
  *Element, type=C3D6
  *Element, type=C3D8R
  *Element, type=C3D6
  *Element, type=C3D8R
  *Element, type=C3D6
  *Element, type=C3D8R
  *Element, type=C3D6
  *Element, type=C3D8R
  *Element, type=C3D6
  *Element, type=C3D8R
  *Element, type=C3D6
  *Element, type=C3D8R
  *Element, type=C3D6
  *Element, type=C3D8R
  *Element, type=C3D6
  *Element, type=C3D8R
  *Element, type=C3D6
  *Element, type=C3D8R
  *Element, type=C3D6
  *Element, type=C3D8R
  *Element, type=C3D6
  *Element, type=C3D8R
  *Element, type=C3D6
  *Element, type=C3D8R
  *Element, type=C3D6
  *Element, type=C3D8R
  *Element, type=C3D6
  *Element, type=C3D8R
  *Element, type=C3D6
  *Element, type=C3D8R
  *Element, type=C3D6
  *Element, type=C3D8R
  *Element, type=C3D6
  *Element, type=C3D8R
  *Element, type=C3D6
  *Element, type=C3D8R
  *Element, type=C3D6
  *Element, type=C3D8R
  *Element, type=C3D6
  *Element, type=C3D8R
  *Element, type=C3D6
  *Element, type=C3D8R
  *Element, type=C3D6
  *Element, type=C3D8R
  *Element, type=C3D6
  *Element, type=C3D8R
  *Element, type=C3D6
  *Element, type=C3D8R
  *Element, type=C3D6
  *Element, type=C3D8R
  *Element, type=C3D6
  *Element, type=C3D8R
  *Element, type=C3D6
  *Element, type=C3D8R
  *Element, type=C3D6
  *Element, type=C3D8R
  *Element, type=C3D6
  *Element, type=C3D8R
  *Element, type=C3D6
  *Element, type=C3D8R
  *Element, type=C3D6
  *Element, type=C3D8R
  *Element, type=C3D6
  *Element, type=C3D8R
  *Element, type=C3D6
  *Element, type=C3D8R
  *Element, type=C3D6
  *Element, type=C3D8R
  *Element, type=C3D6
  *Element, type=C3D8R
  *Element, type=C3D6
  *Element, type=C3D8R
  *Element, type=C3D6
  *Element, type=C3D8R
  *Element, type=C3D6
  *Element, type=C3D8R
  *Element, type=C3D6
  *Element, type=C3D8R
  *Element, type=C3D6
  *Element, type=C3D8R
  *Element, type=C3D6
  *Element, type=C3D8R
  *Element, type=C3D6
  *Element, type=C3D8R
  *Element, type=C3D6
  *Element, type=C3D8R
  *Element, type=C3D6
  *Element, type=C3D8R
  *Element, type=C3D6
  *Element, type=C3D8R
  *Element, type=C3D6
  *Element, type=C3D8R
  *Element, type=C3D6
  *Element, type=C3D8R
  *Element, type=C3D6
  *Element, type=C3D8R
  *Element, type=C3D6
  *Element, type=C3D8R
  *Element, type=C3D6
  *Element, type=C3D8R
  *Element, type=C3D6
  *Element, type=C3D8R
  *Element, type=C3D6
  *Element, type=C3D8R
  *Element, type=C3D6
  *Element, type=C3D8R
  *Element, type=C3D6
  *Element, type=C3D8R
  *Element, type=C3D6
  *Element, type=C3D8R
  *Element, type=C3D6
  *Element, type=C3D8R
  *Element, type=C3D6
  *Element, type=C3D8R
  *Element, type=C3D6
  *Element, type=C3D8R
  *Element, type=C3D6
  *Element, type=C3D8R
  *Element, type=C3D6
  *Element, type=C3D8R
  *Element, type=C3D6
  *Element, type=C3D8R
  *Element, type=C3D6
  *Element, type=C3D8R
  *Element, type=C3D6
  *Element, type=C3D8R
  *Element, type=C3D6
  *Element, type=C3D8R
  *Element, type=C3D6
  *Element, type=C3D8R
  *Element, type=C3D6
  *Element, type=C3D8R
  *Element, type=C3D6
  *Element, type=C3D8R
  *Element, type=C3D6
  *Element, type=C3D8R
  *Element, type=C3D6
  *Element, type=C3D8R
  *Element, type=C3D6
  *Element, type=C3D8R
  *Element, type=C3D6
  *Element, type=C3D8R
  *Element, type=C3D6
  *Element, type=C3D8R
  *Element, type=C3D6
  *Element, type=C3D8R
  *Element, type=C3D6
  *Element, type=C3D8R
  *Element, type=C3D6
  *Element, type=C3D8R
  *Element, type=C3D6
  *Element, type=C3D8R
  *Element, type=C3D6
  *Element, type=C3D8R
  *Element, type=C3D6
  *Element, type=C3D8R
  *Element, type=C3D6
  *Element, type=C3D8R
  *Element, type=C3D6
  *Element, type=C3D8R
  *Element, type=C3D6
  *Element, type=C3D8R
  *Element, type=C3D6
  *Element, type=C3D8R
  *Element, type=C3D6
  *Element, type=C3D8R
  *Element, type=C3D6
  *Element, type=C3D8R
  *Element, type=C3D6
  *Element, type=C3D8R
  *Element, type=C3D6
  *Element, type=C3D8R
  *Element, type=C3D6
  *Element, type=C3D8R
  *Element, type=C3D6
  *Element, type=C3D8R
  *Element, type=C3D6
  *Element, type=C3D8R
  *Element, type=C3D6
  *Element, type=C3D8R
  *Element, type=C3D6
  *Element, type=C3D8R
  *Element, type=C3D6
  *Element, type=C3D8R
  *Element, type=C3D6
  *Element, type=C3D8R
  *Element, type=C3D6
  *Element, type=C3D8R
  *Element, type=C3D6
  *Element, type=C3D8R
  *Element, type=C3D6
  *Element, type=C3D8R
  *Element, type=C3D6
  *Element, type=C3D8R
  *Element, type=C3D6
  *Element, type=C3D8R
  *Element, type=C3D6
  *Element, type=C3D8R
  *Element, type=C3D6
  *Element, type=C3D8R
  *Element, type=C3D6
  *Element, type=C3D8R
  *Element, type=C3D6
  *Element, type=C3D8R
  *Element, type=C3D6
  *Element, type=C3D8R
  *Element, type=C3D6
  *Element, type=C3D8R
  *Element, type=C3D6
  *Element, type=C3D8R
  *Element, type=C3D6
  *Element, type=C3D8R
  *Element, type=C3D6
  *Element, type=C3D8R
  *Element, type=C3D6
  *Element, type=C3D8R
  *Element, type=C3D6
  *Element, type=C3D8R
  *Element, type=C3D6
  *Element, type=C3D8R
  *Element, type=C3D6
  *Element, type=C3D8R
  *Element, type=C3D6
  *Element, type=C3D8R
  *Element, type=C3D6
  *Element, type=C3D8R
  *Element, type=C3D6
  *Element, type=C3D8R
  *Element, type=C3D6
  *Element, type=C3D8R
  *Element, type=C3D6
  *Element, type=C3D8R
  *Element, type=C3D6
  *Element, type=C3D8R
  *Element, type=C3D6
  *Element, type=C3D8R
  *Element, type=C3D6
  *Element, type=C3D8R
  *Element, type=C3D6
  *Element, type=C3D8R
  *Element, type=C3D6
  *Element, type=C3D8R
  *Element, type=C3D6
  *Element, type=C3D8R
  *Element, type=C3D6
  *Element, type=C3D8R
  *Element, type=C3D6
  *Element, type=C3D8R
  *Element, type=C3D6
  *Element, type=C3D8R
  *Element, type=C3D6
  *Element, type=C3D8R
  *Element, type=C3D6
  *Element, type=C3D8R
  *Element, type=C3D6
  *Element, type=C3D8R
  *Element, type=C3D6
  *Element, type=C3D8R
  *Element, type=C3D6
  *Element, type=C3D8R
  *Element, type=C3D6
  *Element, type=C3D8R
  *Element, type=C3D6
  *Element, type=C3D8R
  *Element, type=C3D6
  *Element, type=C3D8R
  *Element, type=C3D6
  *Element, type=C3D8R
  *Element, type=C3D6
  *Element, type=C3D8R
  *Element, type=C3D6
  *Element, type=C3D8R
  *Element, type=C3D6
  *Element, type=C3D8R
  *Element, type=C3D6
  *Element, type=C3D8R
  *Element, type=C3D6
  *Element, type=C3D8R
  *Element, type=C3D6
  *Element, type=C3D8R
  *Element, type=C3D6
  *Element, type=C3D8R
  *Element, type=C3D6
  *Element, type=C3D8R
  *Element, type=C3D6
  *Element, type=C3D8R
  *Element, type=C3D6
  *Element, type=C3D8R
  *Element, type=C3D6
  *Element, type=C3D8R
  *Element, type=C3D6
  *Element, type=C3D8R
  *Element, type=C3D6
  *Element, type=C3D8R
  *Element, type=C3D6
  *Element, type=C3D8R
  *Element, type=C3D6
  *Element, type=C3D8R
  *Element, type=C3D6
  *Element, type=C3D8R
  *Element, type=C3D6
  *Element, type=C3D8R
  *Element, type=C3D6
  *Element, type=C3D8R
  *Element, type=C3D6
  *Element, type=C3D8R
  *Element, type=C3D6
  *Element, type=C3D8R
  *Element, type=C3D6
  *Element, type=C3D8R
  *Element, type=C3D6
  *Element, type=C3D8R
  *Element, type=C3D6
  *Element, type=C3D8R
  *Element, type=C3D6
  *Element, type=C3D8R
  *Element, type=C3D6
  *Element, type=C3D8R
  *Element, type=C3D6
  *Element, type=C3D8R
  *Element, type=C3D6
  *Element, type=C3D8R
  *Element, type=C3D6
  *Element, type=C3D8R
  *Element, type=C3D6
  *Element, type=C3D8R
  *Element, type=C3D6
  *Element, type=C3D8R
  *Element, type=C3D6
  *Element, type=C3D8R
  *Element, type=C3D6
  *Element, type=C3D8R
  *Element, type=C3D6
  *Element, type=C3D8R
  *Element, type=C3D6
  *Element, type=C3D8R
  *Element, type=C3D6
  *Element, type=C3D8R
  *Element, type=C3D6
  *Element, type=C3D8R
  *Element, type=C3D6
  *Element, type=C3D8R
  *Element, type=C3D6
  *Element, type=C3D8R
  *Element, type=C3D6
  *Element, type=C3D8R
  *Element, type=C3D6
  *Element, type=C3D8R
  *Element, type=C3D6
  *Element, type=C3D8R
  *Element, type=C3D6
  *Element, type=C3D8R
  *Element, type=C3D6
  *Element, type=C3D8R
  *Element, type=C3D6
  *Element, type=C3D8R
  *Element, type=C3D6
  *Element, type=C3D8R
  *Element, type=C3D6
  *Element, type=C3D8R
  *Element, type=C3D6
  *Element, type=C3D8R
  *Element, type=C3D6
  *Element, type=C3D8R
  *Element, type=C3D6
  *Element, type=C3D8R
  *Element, type=C3D6
  *Element, type=C3D8R
  *Element, type=C3D6
  *Element, type=C3D8R
  *Element, type=C3D6
  *Element, type=C3D8R
  *Element, type=C3D6
  *Element, type=C3D8R
  *Element, type=C3D6
  *Element, type=C3D8R
  *Element, type=C3D6
  *Element, type=C3D8R
  *Element, type=C3D6
  *Element, type=C3D8R
  *Element, type=C3D6
  *Element, type=C3D8R
  *Element, type=C3D6
  *Element, type=C3D8R
  *Element, type=C3D6
  *Element, type=C3D8R
  *Element, type=C3D6
  *Element, type=C3D8R
  *Element, type=C3D6
  *Element, type=C3D8R
  *Element, type=C3D6
  *Element, type=C3D8R
  *Element, type=C3D6
  *Element, type=C3D8R
  *Element, type=C3D6
  *Element, type=C3D8R
  *Element, type=C3D6
  *Element, type=C3D8R
  *Element, type=C3D6
  *Element, type=C3D8R
  *Element, type=C3D6
  *Element, type=C3D8R
  *Element, type=C3D6
  *Element, type=C3D8R
  *Element, type=C3D6
  *Element, type=C3D8R
  *Element, type=C3D6
  *Element, type=C3D8R
  *Element, type=C3D6
  *Element, type=C3D8R
  *Element, type=C3D6
  *Element, type=C3D8R
  *Element, type=C3D6
  *Element, type=C3D8R
  *Element, type=C3D6
  *Element, type=C3D8R
  *Element, type=C3D6
  *Element, type=C3D8R
  *Element, type=C3D6
  *Element, type=C3D8R
  *Element, type=C3D6
  *Element, type=C3D8R
  *Element, type=C3D6
  *Element, type=C3D8R
  *Element, type=C3D6
  *Element, type=C3D8R
  *Element, type=C3D6
  *Element, type=C3D8R
  *Element, type=C3D6
  *Element, type=C3D8R
  *Element, type=C3D6
  *Element, type=C3D8R
  *Element, type=C3D6
  *Element, type=C3D8R
  *Element, type=C3D6
  *Element, type=C3D8R
  *Element, type=C3D6
  *Element, type=C3D8R
  *Element, type=C3D6
  *Element, type=C3D8R
  *Element, type=C3D6
  *Element, type=C3D8R
  *Element, type=C3D6
  *Element, type=C3D8R
  *Element, type=C3D6
  *Element, type=C3D8R
  *Element, type=C3D6
  *Element, type=C3D8R
  *Element, type=C3D6
  *Element, type=C3D8R
  *Element, type=C3D6
  *Element, type=C3D8R
  *Element, type=C3D6
  *Element, type=C3D8R
  *Element, type=C3D6
  *Element, type=C3D8R
  *Element, type=C3D6
  *Element, type=C3D8R
  *Element, type=C3D6
  *Element, type=C3D8R
  *Element, type=C3D6
  *Element, type=C3D8R
  *Element, type=C3D6
  *Element, type=C3D8R
  *Element, type=C3D6
  *Element, type=C3D8R
  *Element, type=C3D6
  *Element, type=C3D8R
  *Element, type=C3D6
  *Element, type=C3D8R
  *Element, type=C3D6
  *Element, type=C3D8R
  *Element, type=C3D6
  *Element, type=C3D8R
  *Element, type=C3D6
  *Element, type=C3D8R
  *Element, type=C3D6
  *Element, type=C3D8R
  *Element, type=C3D6
  *Element, type=C3D8R
  *Element, type=C3D6
  *Element, type=C3D8R
  *Element, type=C3D6
  *Element, type=C3D8R
  *Element, type=C3D6
  *Element, type=C3D8R
  *Element, type=C3D6
  *Element, type=C3D8R
  *Element, type=C3D6
  *Element, type=C3D8R
  *Element, type=C3D6
  *Element, type=C3D8R
  *Element, type=C3D6
  *Element, type=C3D8R
  *Element, type=C3D6
  *Element, type=C3D8R
  *Element, type=C3D6
  *Element, type=C3D8R
  *Element, type=C3D6
  *Element, type=C3D8R
  *Element, type=C3D6
  *Element, type=C3D8R
  *Element, type=C3D6
  *Element, type=C3D8R
  *Element, type=C3D6
  *Element, type=C3D8R
  *Element, type=C3D6
  *Element, type=C3D8R
  *Element, type=C3D6
  *Element, type=C3D8R
  *Element, type=C3D6
  *Element, type=C3D8R
  *Element, type=C3D6
  *Element, type=C3D8R
  *Element, type=C3D6
  *Element, type=C3D8R
  *Element, type=C3D6
  *Element, type=C3D8R
  *Element, type=C3D6
  *Element, type=C3D8R
  *Element, type=C3D6
  *Element, type=C3D8R
  *Element, type=C3D6
  *Element, type=C3D8R
  *Element, type=C3D6
  *Element, type=C3D8R
  *Element, type=C3D6
  *Element, type=C3D8R
  *Element, type=C3D6
  *Element, type=C3D8R
  *Element, type=C3D6
  *Element, type=C3D8R
  *Element, type=C3D6
  *Element, type=C3D8R
  *Element, type=C3D6
  *Element, type=C3D8R
  *Element, type=C3D6
  *Element, type=C3D8R
  *Element, type=C3D6
  *Element, type=C3D8R
  *Element, type=C3D6
  *Element, type=C3D8R
  *Element, type=C3D6
  *Element, type=C3D8R
  *Element, type=C3D6
  *Element, type=C3D8R
  *Element, type=C3D6
  *Element, type=C3D8R
  *Element, type=C3D6
  *Element, type=C3D8R
  *Element, type=C3D6
  *Element, type=C3D8R
  *Element, type=C3D6
  *Element, type=C3D8R
  *Element, type=C3D6
  *Element, type=C3D8R
  *Element, type=C3D6
  *Element, type=C3D8R
  *Element, type=C3D6
  *Element, type=C3D8R
  *Element, type=C3D6
  *Element, type=C3D8R
  *Element, type=C3D6
  *Element, type=C3D8R
  *Element, type=C3D6
  *Element, type=C3D8R
  *Element, type=C3D6
  *Element, type=C3D8R
  *Element, type=C3D6
  *Element, type=C3D8R
  *Element, type=C3D6
  *Element, type=C3D8R
  *Element, type=C3D6
  *Element, type=C3D8R
  *Element, type=C3D6
  *Element, type=C3D8R
  *Element, type=C3D6
  *Element, type=C3D8R
  *Element, type=C3D6
  *Element, type=C3D8R
  *Element, type=C3D6
  *Element, type=C3D8R
  *Element, type=C3D6
  *Element, type=C3D8R
  *Element, type=C3D6
  *Element, type=C3D8R
  *Element, type=C3D6
  *Element, type=C3D8R
  *Element, type=C3D6
  *Element, type=C3D8R
  *Element, type=C3D6
  *Element, type=C3D8R
  *Element, type=C3D6
  *Element, type=C3D8R
  *Element, type=C3D6
  *Element, type=C3D8R
  *Element, type=C3D6
  *Element, type=C3D8R
  *Element, type=C3D6
  *Element, type=C3D8R
  *Element, type=C3D6
  *Element, type=C3D8R
  *Element, type=C3D6
  *Element, type=C3D8R
  *Element, type=C3D6
  *Element, type=C3D8R
  *Element, type=C3D6
  *Element, type=C3D8R
  *Element, type=C3D6
  *Element, type=C3D8R
  *Element, type=C3D6
  *Element, type=C3D8R
  *Element, type=C3D6
  *Element, type=C3D8R
  *Element, type=C3D6
  *Element, type=C3D8R
  *Element, type=C3D6
  *Element, type=C3D8R
  *Element, type=C3D6
  *Element, type=C3D8R
  *Element, type=C3D6
  *Element, type=C3D8R
  *Element, type=C3D6
  *Element, type=C3D8R
  *Element, type=C3D6
  *Element, type=C3D8R
  *Element, type=C3D6
  *Element, type=C3D8R
  *Element, type=C3D6
  *Element, type=C3D8R
  *Element, type=C3D6
  *Element, type=C3D8R
  *Element, type=C3D6
  *Element, type=C3D8R
  *Element, type=C3D6
  *Element, type=C3D8R
  *Element, type=C3D6
  *Element, type=C3D8R
  *Element, type=C3D6
  *Element, type=C3D8R
  *Element, type=C3D6
  *Element, type=C3D8R
  *Element, type=C3D6
  *Element, type=C3D8R
  *Element, type=C3D6
  *Element, type=C3D8R
  *Element, type=C3D6
  *Element, type=C3D8R
  *Element, type=C3D6
  *Element, type=C3D8R
  *Element, type=C3D6
  *Element, type=C3D8R
  *Element, type=C3D6
  *Element, type=C3D8R
  *Element, type=C3D6
  *Element, type=C3D8R
  *Element, type=C3D6
  *Element, type=C3D8R
  *Element, type=C3D6
  *Element, type=C3D8R
  *Element, type=C3D6
  *Element, type=C3D8R
  *Element, type=C3D6
  *Element, type=C3D8R
  *Element, type=C3D6
  *Element, type=C3D8R
  *Element, type=C3D6
  *Element, type=C3D8R
  *Element, type=C3D6
  *Element, type=C3D8R
  *Element, type=C3D6
  *Element, type=C3D8R
  *Element, type=C3D6
  *Element, type=C3D8R
  *Element, type=C3D6
  *Element, type=C3D8R
  *Element, type=C3D6
  *Element, type=C3D8R
  *Element, type=C3D6
  *Element, type=C3D8R
  *Element, type=C3D6
  *Element, type=C3D8R
  *Element, type=C3D6
  *Element, type=C3D8R
  *Element, type=C3D6
  *Element, type=C3D8R
  *Element, type=C3D6
  *Element, type=C3D8R
  *Element, type=C3D6
  *Element, type=C3D8R
  *Element, type=C3D6
  *Element, type=C3D8R
  *Element, type=C3D6
  *Element, type=C3D8R
  *Element, type=C3D6
  *Element, type=C3D8R
  *Element, type=C3D6
  *Element, type=C3D8R
  *Element, type=C3D6
  *Element, type=C3D8R
  *Element, type=C3D6
  *Element, type=C3D8R
  *Element, type=C3D6
  *Element, type=C3D8R
  *Element, type=C3D6
  *Element, type=C3D8R
  *Element, type=C3D6
  *Element, type=C3D8R
  *Element, type=C3D6
  *Element, type=C3D8R
  *Element, type=C3D6
  *Element, type=C3D8R
  *Element, type=C3D6
  *Element, type=C3D8R
  *Element, type=C3D6
  *Element, type=C3D8R
  *Element, type=C3D6
  *Element, type=C3D8R
  *Element, type=C3D6
  *Element, type=C3D8R
  *Element, type=C3D6
  *Element, type=C3D8R
  *Element, type=C3D6
  *Element, type=C3D8R
  *Element, type=C3D6
  *Element, type=C3D8R
  *Element, type=C3D6
  *Element, type=C3D8R
  *Element, type=C3D6
  *Element, type=C3D8R
  *Element, type=C3D6
  *Element, type=C3D8R
  *Element, type=C3D6
  *Element, type=C3D8R
  *Element, type=C3D6
  *Element, type=C3D8R
  *Element, type=C3D6
  *Element, type=C3D8R
  *Element, type=C3D6
  *Element, type=C3D8R
  *Element, type=C3D6
  *Element, type=C3D8R
  *Element, type=C3D6
  *Element, type=C3D8R
  *Element, type=C3D6
  *Element, type=C3D8R
  *Element, type=C3D6
  *Element, type=C3D8R
  *Element, type=C3D6
  *Element, type=C3D8R
  *Element, type=C3D6
  *Element, type=C3D8R
  *Element, type=C3D6
  *Element, type=C3D8R
  *Element, type=C3D6
  *Element, type=C3D8R
  *Element, type=C3D6
  *Element, type=C3D8R
  *Element, type=C3D6
  *Element, type=C3D8R
  *Element, type=C3D6
  *Element, type=C3D8R
  *Element, type=C3D6
  *Element, type=C3D8R
  *Element, type=C3D6
  *Element, type=C3D8R
  *Element, type=C3D6
  *Element, type=C3D8R
  *Element, type=C3D6
  *Element, type=C3D8R
  *Element, type=C3D6
  *Element, type=C3D8R
  *Element, type=C3D6
  *Element, type=C3D8R
  *Element, type=C3D6
  *Element, type=C3D8R
  *Element, type=C3D6
  *Element, type=C3D8R
  *Element, type=C3D6
  *Element, type=C3D8R
  *Element, type=C3D6
  *Element, type=C3D8R
  *Element, type=C3D6
  *Element, type=C3D8R
  *Element, type=C3D6
  *Element, type=C3D8R
  *Element, type=C3D6
  *Element, type=C3D8R
  *Element, type=C3D6
  *Element, type=C3D8R
  *Element, type=C3D6
  *Element, type=C3D8R
  *Element, type=C3D6
  *Element, type=C3D8R
  *Element, type=C3D6
  *Element, type=C3D8R
  *Element, type=C3D6
  *Element, type=C3D8R
  *Element, type=C3D6
  *Element, type=C3D8R
  *Element, type=C3D6
  *Element, type=C3D8R
  *Element, type=C3D6
  *Element, type=C3D8R
  *Element, type=C3D6
  *Element, type=C3D8R
  *Element, type=C3D6
  *Element, type=C3D8R
  *Element, type=C3D6
  *Element, type=C3D8R
  *Element, type=C3D6
  *Element, type=C3D8R
  *Element, type=C3D6
  *Element, type=C3D8R
  *Element, type=C3D6
  *Element, type=C3D8R
  *Element, type=C3D6
  *Element, type=C3D8R
  *Element, type=C3D6
  *Element, type=C3D8R
  *Element, type=C3D6
  *Element, type=C3D8R
  *Element, type=C3D6
  *Element, type=C3D8R
  *Element, type=C3D6
  *Element, type=C3D8R
  *Element, type=C3D6
  *Element, type=C3D8R
  *Element, type=C3D6
  *Element, type=C3D8R
  *Element, type=C3D6
  *Element, type=C3D8R
  *Element, type=C3D6
  *Element, type=C3D8R
  *Element, type=C3D6
  *Element, type=C3D8R
  *Element, type=C3D6
  *Element, type=C3D8R
  *Element, type=C3D6
  *Element, type=C3D8R
  *Element, type=C3D6
  *Element, type=C3D8R
  *Element, type=C3D6
  *Element, type=C3D8R
  *Element, type=C3D6
  *Element, type=C3D8R
  *Element, type=C3D6
  *Element, type=C3D8R
  *Element, type=C3D6
  *Element, type=C3D8R
  *Element, type=C3D6
  *Element, type=C3D8R
  *Element, type=C3D6
  *Element, type=C3D8R
  *Element, type=C3D6
  *Element, type=C3D8R
  *Element, type=C3D6
  *Element, type=C3D8R
  *Element, type=C3D6
  *Element, type=C3D8R
  *Element, type=C3D6
  *Element, type=C3D8R
  *Element, type=C3D6
  *Element, type=C3D8R
  *Element, type=C3D6
  *Element, type=C3D8R
  *Element, type=C3D6
  *Element, type=C3D8R
  *Element, type=C3D6
  *Element, type=C3D8R
  *Element, type=C3D6
  *Element, type=C3D8R
  *Element, type=C3D6
  *Element, type=C3D8R
  *Element, type=C3D6
  *Element, type=C3D8R
  *Element, type=C3D6
  *Element, type=C3D8R
  *Element, type=C3D6
  *Element, type=C3D8R
  *Element, type=C3D6
  *Element, type=C3D8R
  *Element, type=C3D6
  *Element, type=C3D8R
  *Element, type=C3D6
  *Element, type=C3D8R
  *Element, type=C3D6
  *Element, type=C3D8R
  *Element, type=C3D6
  *Element, type=C3D8R
  *Element, type=C3D6
  *Element, type=C3D8R
  *Element, type=C3D6
  *Element, type=C3D8R
  *Element, type=C3D6
  *Element, type=C3D8R
  *Element, type=C3D6
  *Element, type=C3D8R
  *Element, type=C3D6
  *Element, type=C3D8R
  *Element, type=C3D6
  *Element, type=C3D8R
  *Element, type=C3D6
  *Element, type=C3D8R
  *Element, type=C3D6
  *Element, type=C3D8R
  *Element, type=C3D6
  *Element, type=C3D8R
  *Element, type=C3D6
  *Element, type=C3D8R
  *Element, type=C3D6
  *Element, type=C3D8R
  *Element, type=C3D6
  *Element, type=C3D8R
  *Element, type=C3D6
  *Element, type=C3D8R
  *Element, type=C3D6
  *Element, type=C3D8R
  *Element, type=C3D6
  *Element, type=C3D8R
  *Element, type=C3D6
  *Element, type=C3D8R
  *Element, type=C3D6
  *Element, type=C3D8R
  *Element, type=C3D6
  *Element, type=C3D8R
  *Element, type=C3D6
  *Element, type=C3D8R
  *Element, type=C3D6
  *Element, type=C3D8R
  *Element, type=C3D6
  *Element, type=C3D8R
  *Element, type=C3D6
  *Element, type=C3D8R
  *Element, type=C3D6
  *Element, type=C3D8R
  *Element, type=C3D6
  *Element, type=C3D8R
  *Element, type=C3D6
  *Element, type=C3D8R
  *Element, type=C3D6
  *Element, type=C3D8R
  *Element, type=C3D6
  *Element, type=C3D8R
  *Element, type=C3D6
  *Element, type=C3D8R
  *Element, type=C3D6
  *Element, type=C3D8R
  *Element, type=C3D6
  *Element, type=C3D8R
  *Element, type=C3D6
  *Element, type=C3D8R
  *Element, type=C3D6
  *Element, type=C3D8R
  *Element, type=C3D6
  *Element, type=C3D8R
  *Element, type=C3D6
  *Element, type=C3D8R
  *Element, type=C3D6
  *Element, type=C3D8R
  *Element, type=C3D6
  *Element, type=C3D8R
  *Element, type=C3D6
  *Element, type=C3D8R
  *Element, type=C3D6
  *Element, type=C3D8R
  *Element, type=C3D6
  *Element, type=C3D8R
  *Element, type=C3D6
  *Element, type=C3D8R
  *Element, type=C3D6
  *Element, type=C3D8R
  *Element, type=C3D6
  *Element, type=C3D8R
  *Element, type=C3D6
  *Element, type=C3D8R
  *Element, type=C3D6
  *Element, type=C3D8R
  *Element, type=C3D6
  *Element, type=C3D8R
  *Element, type=C3D6
  *Element, type=C3D8R
  *Element, type=C3D6
  *Element, type=C3D8R
  *Element, type=C3D6
  *Element, type=C3D8R
  *Element, type=C3D6
  *Element, type=C3D8R
  *Element, type=C3D6
  *Element, type=C3D8R
  *Element, type=C3D6
  *Element, type=C3D8R
  *Element, type=C3D6
  *Element, type=C3D8R
  *Element, type=C3D6
  *Element, type=C3D8R
  *Element, type=C3D6
  *Element, type=C3D8R
  *Element, type=C3D6
  *Element, type=C3D8R
  *Element, type=C3D6
  *Element, type=C3D8R
  *Element, type=C3D6
  *Element, type=C3D8R
  *Element, type=C3D6
  *Element, type=C3D8R
  *Element, type=C3D6
  *Element, type=C3D8R
  *Element, type=C3D6
  *Element, type=C3D8R
  *Element, type=C3D6
  *Element, type=C3D8R
  *Element, type=C3D6
  *Element, type=C3D8R
  *Element, type=C3D6
  *Element, type=C3D8R
  *Element, type=C3D6
  *Element, type=C3D8R
  *Element, type=C3D6
  *Element, type=C3D8R
  *Element, type=C3D6
  *Element, type=C3D8R
  *Element, type=C3D6
  *Element, type=C3D8R
  *Element, type=C3D6
  *Element, type=C3D8R
  *Element, type=C3D6
  *Element, type=C3D8R
  *Element, type=C3D6
  *Element, type=C3D8R
  *Element, type=C3D6
  *Element, type=C3D8R
  *Element, type=C3D6
  *Element, type=C3D8R
  *Element, type=C3D6
  *Element, type=C3D8R
  *Element, type=C3D6
  *Element, type=C3D8R
  *Element, type=C3D6
  *Element, type=C3D8R
  *Element, type=C3D6
  *Element, type=C3D8R
  *Element, type=C3D6
  *Element, type=C3D8R
  *Element, type=C3D6
  *Element, type=C3D8R
  *Element, type=C3D6
  *Element, type=C3D8R
  *Element, type=C3D6
  *Element, type=C3D8R
  *Element, type=C3D6
  *Element, type=C3D8R
  *Element, type=C3D6
  *Element, type=C3D8R
  *Element, type=C3D6
  *Element, type=C3D8R
  *Element, type=C3D6
  *Element, type=C3D8R
  *Element, type=C3D6
  *Element, type=C3D8R
  *Element, type=C3D6
  *Element, type=C3D8R
  *Element, type=C3D6
  *Element, type=C3D8R
  *Element, type=C3D6
  *Element, type=C3D8R
  *Element, type=C3D6
  *Element, type=C3D8R
  *Element, type=C3D6
  *Element, type=C3D8R
  *Element, type=C3D6
  *Element, type=C3D8R
  *Element, type=C3D6
  *Element, type=C3D8R
  *Element, type=C3D6
  *Element, type=C3D8R
  *Element, type=C3D6
  *Element, type=C3D8R
  *Element, type=C3D6
  *Element, type=C3D8R
  *Element, type=C3D6
  *Element, type=C3D8R
  *Element, type=C3D6
  *Element, type=C3D8R
  *Element, type=C3D6
  *Element, type=C3D8R
  *Element, type=C3D6
  *Element, type=C3D8R
  *Element, type=C3D6
  *Element, type=C3D8R
  *Element, type=C3D6
  *Element, type=C3D8R
  *Element, type=C3D6
  *Element, type=C3D8R
  *Element, type=C3D6
  *Element, type=C3D8R
  *Element, type=C3D6
  *Element, type=C3D8R
  *Element, type=C3D6
  *Element, type=C3D8R
  *Element, type=C3D6
  *Element, type=C3D8R
  *Element, type=C3D6
  *Element, type=C3D8R
  *Element, type=C3D6
  *Element, type=C3D8R
  *Element, type=C3D6
  *Element, type=C3D8R
  *Element, type=C3D6
  *Element, type=C3D8R
  *Element, type=C3D6
  *Element, type=C3D8R
  *Element, type=C3D6
  *Element, type=C3D8R
  *Element, type=C3D6
  *Element, type=C3D8R
  *Element, type=C3D6
  *Element, type=C3D8R
  *Element, type=C3D6
  *Element, type=C3D8R
  *Element, type=C3D6
  *Element, type=C3D8R
  *Element, type=C3D6
  *Element, type=C3D8R
  *Element, type=C3D6
  *Element, type=C3D8R
  *Element, type=C3D6
  *Element, type=C3D8R
  *Element, type=C3D6
  *Element, type=C3D8R
  *Element, type=C3D6
  *Element, type=C3D8R
  *Element, type=C3D6
  *Element, type=C3D8R
  *Element, type=C3D6
  *Element, type=C3D8R
  *Element, type=C3D6
  *Element, type=C3D8R
  *Element, type=C3D6
  *Element, type=C3D8R
  *Element, type=C3D6
  *Element, type=C3D8R
  *Element, type=C3D6
  *Element, type=C3D8R
  *Element, type=C3D6
  *Element, type=C3D8R
  *Element, type=C3D6
  *Element, type=C3D8R
  *Element, type=C3D6
  *Element, type=C3D8R
  *Element, type=C3D6
  *Element, type=C3D8R
  *Element, type=C3D6
  *Element, type=C3D8R
  *Element, type=C3D6
  *Element, type=C3D8R
  *Element, type=C3D6
  *Element, type=C3D8R
  *Element, type=C3D6
  *Element, type=C3D8R
  *Element, type=C3D6
  *Element, type=C3D8R
  *Element, type=C3D6
  *Element, type=C3D8R
  *Element, type=C3D6
  *Element, type=C3D8R
  *Element, type=C3D6
  *Element, type=C3D8R
  *Element, type=C3D6
  *Element, type=C3D8R
  *Element, type=C3D6
  *Element, type=C3D8R
  *Element, type=C3D6
  *Element, type=C3D8R
  *Element, type=C3D6
  *Element, type=C3D8R
  *Element, type=C3D6
  *Element, type=C3D8R
  *Element, type=C3D6
  *Element, type=C3D8R
  *Element, type=C3D6
  *Element, type=C3D8R
  *Element, type=C3D6
  *Element, type=C3D8R
  *Element, type=C3D6
  *Element, type=C3D8R
  *Element, type=C3D6
  *Element, type=C3D8R
  *Element, type=C3D6
  *Element, type=C3D8R
  *Element, type=C3D6
  *Element, type=C3D8R
  *Element, type=C3D6
  *Element, type=C3D8R
  *Element, type=C3D6
  *Element, type=C3D8R
  *Element, type=C3D6
  *Element, type=C3D8R
  *Element, type=C3D6
  *Element, type=C3D8R
  *Element, type=C3D6
  *Element, type=C3D8R
  *Element, type=C3D6
  *Element, type=C3D8R
  *Element, type=C3D6
  *Element, type=C3D8R
  *Element, type=C3D6
  *Element, type=C3D8R
  *Element, type=C3D6
  *Element, type=C3D8R
  *Element, type=C3D6
  *Element, type=C3D8R
  *Element, type=C3D6
  *Element, type=C3D8R
  *Element, type=C3D6
  *Element, type=C3D8R
  *Element, type=C3D6
  *Element, type=C3D8R
  *Element, type=C3D6
  *Element, type=C3D8R
  *Element, type=C3D6
  *Element, type=C3D8R
  *Element, type=C3D6
  *Element, type=C3D8R
  *Element, type=C3D6
  *Element, type=C3D8R
  *Element, type=C3D6
  *Element, type=C3D8R
  *Element, type=C3D6
  *Element, type=C3D8R
  *Element, type=C3D6
  *Element, type=C3D8R
  *Element, type=C3D6
  *Element, type=C3D8R
  *Element, type=C3D6
  *Element, type=C3D8R
  *Element, type=C3D6
  *Element, type=C3D8R
  *Element, type=C3D6
  *Element, type=C3D8R
  *Element, type=C3D6
  *Element, type=C3D8R
  *Element, type=C3D6
  *Element, type=C3D8R
  *Element, type=C3D6
  *Element, type=C3D8R
  *Element, type=C3D6
  *Element, type=C3D8R
  *Element, type=C3D6
  *Element, type=C3D8R
  *Element, type=C3D6
  *Element, type=C3D8R
  *Element, type=C3D6
  *Element, type=C3D8R
  *Element, type=C3D6
  *Element, type=C3D8R
  *Element, type=C3D6
  *Element, type=C3D8R
  *Element, type=C3D6
  *Element, type=C3D8R
  *Element, type=C3D6
  *Element, type=C3D8R
  *Element, type=C3D6
  *Element, type=C3D8R
  *Element, type=C3D6
  *Element, type=C3D8R
  *Element, type=C3D6
  *Element, type=C3D8R
  *Element, type=C3D6
  *Element, type=C3D8R
  *Element, type=C3D6
  *Element, type=C3D8R
  *Element, type=C3D6
  *Element, type=C3D8R
  *Element, type=C3D6
  *Element, type=C3D8R
  *Element, type=C3D6
  *Element, type=C3D8R
  *Element, type=C3D6
  *Element, type=C3D8R
  *Element, type=C3D6
  *Element, type=C3D8R
  *Element, type=C3D6
  *Element, type=C3D8R
  *Element, type=C3D6
  *Element, type=C3D8R
  *Element, type=C3D6
  *Element, type=C3D8R
  *Element, type=C3D6
  *Element, type=C3D8R
  *Element, type=C3D6
  *Element, type=C3D8R
  *Element, type=C3D6
  *Element, type=C3D8R
  *Element, type=C3D6
  *Element, type=C3D8R
  *Element, type=C3D6
  *Element, type=C3D8R
  *Element, type=C3D6
  *Element, type=C3D8R
  *Element, type=C3D6
  *Element, type=C3D8R
  *Element, type=C3D6
  *Element, type=C3D8R
  *Element, type=C3D6
  *Element, type=C3D8R
  *Element, type=C3D6
  *Element, type=C3D8R
  *Element, type=C3D6
  *Element, type=C3D8R
  *Element, type=C3D6
  *Element, type=C3D8R
  *Element, type=C3D6
  *Element, type=C3D8R
  *Element, type=C3D6
  *Element, type=C3D8R
  *Element, type=C3D6
  *Element, type=C3D8R
  *Element, type=C3D6
  *Element, type=C3D8R
  *Element, type=C3D6
  *Element, type=C3D8R
  *Element, type=C3D6
  *Element, type=C3D8R
  *Element, type=C3D6
  *Element, type=C3D8R
  *Element, type=C3D6
  *Element, type=C3D8R
  *Element, type=C3D6
  *Element, type=C3D8R
  *Element, type=C3D6
  *Element, type=C3D8R
  *Element, type=C3D6
  *Element, type=C3D8R
  *Element, type=C3D6
  *Element, type=C3D8R
  *Element, type=C3D6
  *Element, type=C3D8R
  *Element, type=C3D6
  *Element, type=C3D8R
  *Element, type=C3D6
  *Element, type=C3D8R
  *Element, type=C3D6
  *Element, type=C3D8R
  *Element, type=C3D6
  *Element, type=C3D8R
  *Element, type=C3D6
  *Element, type=C3D8R
  *Element, type=C3D6
  *Element, type=C3D8R
  *Element, type=C3D6
  *Element, type=C3D8R
  *Element, type=C3D6
  *Element, type=C3D8R
  *Element, type=C3D6
  *Element, type=C3D8R
  *Element, type=C3D6
  *Element, type=C3D8R
  *Element, type=C3D6
  *Element, type=C3D8R
  *Element, type=C3D6
  *Element, type=C3D8R
  *Element, type=C3D6
  *Element, type=C3D8R
  *Element, type=C3D6
  *Element, type=C3D8R
  *Element, type=C3D6
  *Element, type=C3D8R
  *Element, type=C3D6
  *Element, type=C3D8R
  *Element, type=C3D6
  *Element, type=C3D8R
  *Element, type=C3D6
  *Element, type=C3D8R
  *Element, type=C3D6
  *Element, type=C3D8R
  *Element, type=C3D6
  *Element, type=C3D8R
  *Element, type=C3D6
  *Element, type=C3D8R
  *Element, type=C3D6
  *Element, type=C3D8R
  *Element, type=C3D6
  *Element, type=C3D8R
  *Element, type=C3D6
  *Element, type=C3D8R
  *Element, type=C3D6
  *Element, type=C3D8R
  *Element, type=C3D6
  *Element, type=C3D8R
  *Element, type=C3D6
  *Element, type=C3D8R
  *Element, type=C3D6
  *Element, type=C3D8R
  *Element, type=C3D6
  *Element, type=C3D8R
  *Element, type=C3D6
  *Element, type=C3D8R
  *Element, type=C3D6
  *Element, type=C3D8R
  *Element, type=C3D6
  *Element, type=C3D8R
  *Element, type=C3D6
  *Element, type=C3D8R
  *Element, type=C3D6
  *Element, type=C3D8R
  *Element, type=C3D6
  *Element, type=C3D8R
  *Element, type=C3D6
  *Element, type=C3D8R
  *Element, type=C3D6
  *Element, type=C3D8R
  *Element, type=C3D6
  *Element, type=C3D8R
  *Element, type=C3D6
  *Element, type=C3D8R
  *Element, type=C3D6
  *Element, type=C3D8R
  *Element, type=C3D6
  *Element, type=C3D8R
  *Element, type=C3D6
  *Element, type=C3D8R
  *Element, type=C3D6
  *Element, type=C3D8R
  *Element, type=C3D6
  *Element, type=C3D8R
  *Element, type=C3D6
  *Element, type=C3D8R
  *Element, type=C3D6
  *Element, type=C3D8R
  *Element, type=C3D6
  *Element, type=C3D8R
  *Element, type=C3D6
  *Element, type=C3D8R
  *Element, type=C3D6
  *Element, type=C3D8R
  *Element, type=C3D6
  *Element, type=C3D8R
  *Element, type=C3D6
  *Element, type=C3D8R
  *Element, type=C3D6
  *Element, type=C3D8R
  *Element, type=C3D6
  *Element, type=C3D8R
  *Element, type=C3D6
  *Element, type=C3D8R
  *Element, type=C3D6
  *Element, type=C3D8R
  *Element, type=C3D6
  *Element, type=C3D8R
  *Element, type=C3D6
  *Element, type=C3D8R
  *Element, type=C3D6
  *Element, type=C3D8R
  *Element, type=C3D6
  *Element, type=C3D8R
  *Element, type=C3D6
  *Element, type=C3D8R
  *Element, type=C3D6
  *Element, type=C3D8R
  *Element, type=C3D6
  *Element, type=C3D8R
  *Element, type=C3D6
  *Element, type=C3D8R
  *Element, type=C3D6
  *Element, type=C3D8R
  *Element, type=C3D6
  *Element, type=C3D8R
  *Element, type=C3D6
  *Element, type=C3D8R
  *Element, type=C3D6
  *Element, type=C3D8R
  *Element, type=C3D6
  *Element, type=C3D8R
  *Element, type=C3D6
  *Element, type=C3D8R
  *Element, type=C3D6
  *Element, type=C3D8R
  *Element, type=C3D6
  *Element, type=C3D8R
  *Element, type=C3D6
  *Element, type=C3D8R
  *Element, type=C3D6
  *Element, type=C3D8R
  *Element, type=C3D6
  *Element, type=C3D8R
  *Element, type=C3D6
  *Element, type=C3D8R
  *Element, type=C3D6
  *Element, type=C3D8R
  *Element, type=C3D6
  *Element, type=C3D8R
  *Element, type=C3D6
  *Element, type=C3D8R
  *Element, type=C3D6
  *Element, type=C3D8R
  *Element, type=C3D6
  *Element, type=C3D8R
  *Element, type=C3D6
  *Element, type=C3D8R
  *Element, type=C3D6
  *Element, type=C3D8R
  *Element, type=C3D6
  *Element, type=C3D8R
  *Element, type=C3D6
  *Element, type=C3D8R
  *Element, type=C3D6
  *Element, type=C3D8R
  *Element, type=C3D6
  *Element, type=C3D8R
  *Element, type=C3D6
  *Element, type=C3D8R
  *Element, type=C3D6
  *Element, type=C3D8R
  *Element, type=C3D6
  *Element, type=C3D8R
  *Element, type=C3D6
  *Element, type=C3D8R
  *Element, type=C3D6
  *Element, type=C3D8R
  *Element, type=C3D6
  *Element, type=C3D8R
  *Element, type=C3D6
  *Element, type=C3D8R
  *Element, type=C3D6
  *Element, type=C3D8R
  *Element, type=C3D6
  *Element, type=C3D8R
  *Element, type=C3D6
  *Element, type=C3D8R
  *Element, type=C3D6
  *Element, type=C3D8R
  *Element, type=C3D6
  *Element, type=C3D8R
  *Element, type=C3D6
  *Element, type=C3D8R
  *Element, type=C3D6
  *Element, type=C3D8R
  *Element, type=C3D6
  *Element, type=C3D8R
  *Element, type=C3D6
  *Element, type=C3D8R
  *Element, type=C3D6
  *Element, type=C3D8R
  *Element, type=C3D6
  *Element, type=C3D8R
  *Element, type=C3D6
  *Element, type=C3D8R
  *Element, type=C3D6
  *Element, type=C3D8R
  *Element, type=C3D6
  *Element, type=C3D8R
  *Element, type=C3D6
  *Element, type=C3D8R
  *Element, type=C3D6
  *Element, type=C3D8R
  *Element, type=C3D6
  *Element, type=C3D8R
  *Element, type=C3D6
  *Element, type=C3D8R
  *Element, type=C3D6
  *Element, type=C3D8R
  *Element, type=C3D6
  *Element, type=C3D8R
  *Element, type=C3D6
  *Element, type=C3D8R
  *Element, type=C3D6
  *Element, type=C3D8R
  *Element, type=C3D6
  *Element, type=C3D8R
  *Element, type=C3D6
  *Element, type=C3D8R
  *Element, type=C3D6
  *Element, type=C3D8R
  *Element, type=C3D6
  *Element, type=C3D8R
  *Element, type=C3D6
  *Element, type=C3D8R
  *Element, type=C3D6
  *Element, type=C3D8R
  *Element, type=C3D6
  *Element, type=C3D8R
  *Element, type=C3D6
  *Element, type=C3D8R
  *Element, type=C3D6
  *Element, type=C3D8R
  *Element, type=C3D6
  *Element, type=C3D8R
  *Element, type=C3D6
  *Element, type=C3D8R
  *Element, type=C3D6
  *Element, type=C3D8R
  *Element, type=C3D6
  *Element, type=C3D8R
  *Element, type=C3D6
  *Element, type=C3D8R
  *Element, type=C3D6
  *Element, type=C3D8R
  *Element, type=C3D6
  *Element, type=C3D8R
  *Element, type=C3D6
  *Element, type=C3D8R
  *Element, type=C3D6
  *Element, type=C3D8R
  *Element, type=C3D6
  *Element, type=C3D8R
  *Element, type=C3D6
  *Element, type=C3D8R
  *Element, type=C3D6
  *Element, type=C3D8R
  *Element, type=C3D6
  *Element, type=C3D8R
  *Element, type=C3D6
  *Element, type=C3D8R
  *Element, type=C3D6
  *Element, type=C3D8R
  *Element, type=C3D6
  *Element, type=C3D8R
  *Element, type=C3D6
  *Element, type=C3D8R
  *Element, type=C3D6
  *Element, type=C3D8R
  *Element, type=C3D6
  *Element, type=C3D8R
  *Element, type=C3D6
  *Element, type=C3D8R
  *Element, type=C3D6
  *Element, type=C3D8R
  *Element, type=C3D6
  *Element, type=C3D8R
  *Element, type=C3D6
  *Element, type=C3D8R
  *Element, type=C3D6
  *Element, type=C3D8R
  *Element, type=C3D6
  *Element, type=C3D8R
  *Element, type=C3D6
  *Element, type=C3D8R
  *Element, type=C3D6
  *Element, type=C3D8R
  *Element, type=C3D6
  *Element, type=C3D8R
  *Element, type=C3D6
  *Element, type=C3D8R
  *Element, type=C3D6
  *Element, type=C3D8R
  *Element, type=C3D6
  *Element, type=C3D8R
  *Element, type=C3D6
  *Element, type=C3D8R
  *Element, type=C3D6
  *Element, type=C3D8R
  *Element, type=C3D6
  *Element, type=C3D8R
  *Element, type=C3D6
  *Element, type=C3D8R
  *Element, type=C3D6
  *Element, type=C3D8R
  *Element, type=C3D6
  *Element, type=C3D8R
  *Element, type=C3D6
  *Element, type=C3D8R
  *Element, type=C3D6
  *Element, type=C3D8R
  *Element, type=C3D6
  *Element, type=C3D8R
  *Element, type=C3D6
  *Element, type=C3D8R
  *Element, type=C3D6
  *Element, type=C3D8R
  *Element, type=C3D6
  *Element, type=C3D8R
  *Element, type=C3D6
  *Element, type=C3D8R
  *Element, type=C3D6
  *Element, type=C3D8R
  *Element, type=C3D6
  *Element, type=C3D8R
  *Element, type=C3D6
  *Element, type=C3D8R
  *Element, type=C3D6
  *Element, type=C3D8R
  *Element, type=C3D6
  *Element, type=C3D8R
  *Element, type=C3D6
  *Element, type=C3D8R
  *Element, type=C3D6
  *Element, type=C3D8R
  *Element, type=C3D6
  *Element, type=C3D8R
  *Element, type=C3D6
  *Element, type=C3D8R
  *Element, type=C3D6
  *Element, type=C3D8R
  *Element, type=C3D6
  *Element, type=C3D8R
  *Element, type=C3D6
  *Element, type=C3D8R
  *Element, type=C3D6
  *Element, type=C3D8R
  *Element, type=C3D6
  *Element, type=C3D8R
  *Element, type=C3D6
  *Element, type=C3D8R
  *Element, type=C3D6
  *Element, type=C3D8R
  *Element, type=C3D6
  *Element, type=C3D8R
  *Element, type=C3D6
  *Element, type=C3D8R
  *Element, type=C3D6
  *Element, type=C3D8R
  *Element, type=C3D6
  *Element, type=C3D8R
  *Element, type=C3D6
  *Element, type=C3D8R
  *Element, type=C3D6
  *Element, type=C3D8R
  *Element, type=C3D6
  *Element, type=C3D8R
  *Element, type=C3D6
  *Element, type=C3D8R
  *Element, type=C3D6
  *Element, type=C3D8R
  *Element, type=C3D6
  *Element, type=C3D8R
  *Element, type=C3D6
  *Element, type=C3D8R
  *Element, type=C3D6
  *Element, type=C3D8R
  *Element, type=C3D6
  *Element, type=C3D8R
  *Element, type=C3D6
  *Element, type=C3D8R
  *Element, type=C3D6
  *Element, type=C3D8R
  *Element, type=C3D6
  *Element, type=C3D8R
  *Element, type=C3D6
  *Element, type=C3D8R
  *Element, type=C3D6
  *Element, type=C3D8R
  *Element, type=C3D6
  *Element, type=C3D8R
  *Element, type=C3D6
  *Element, type=C3D8R
  *Element, type=C3D6
  *Element, type=C3D8R
  *Element, type=C3D6
  *Element, type=C3D8R
  *Element, type=C3D6
  *Element, type=C3D8R
  *Element, type=C3D6
  *Element, type=C3D8R
  *Element, type=C3D6
  *Element, type=C3D8R
  *Element, type=C3D6
  *Element, type=C3D8R
  *Element, type=C3D6
  *Element, type=C3D8R
  *Element, type=C3D6
  *Element, type=C3D8R
  *Element, type=C3D6
  *Element, type=C3D8R
  *Element, type=C3D6
  *Element, type=C3D8R
  *Element, type=C3D6
  *Element, type=C3D8R
  *Element, type=C3D6
  *Element, type=C3D8R
  *Element, type=C3D6
  *Element, type=C3D8R
  *Element, type=C3D6
  *Element, type=C3D8R
  *Element, type=C3D6
  *Element, type=C3D8R
  *Element, type=C3D6
  *Element, type=C3D8R
  *Element, type=C3D6
  *Element, type=C3D8R
  *Element, type=C3D6
  *Element, type=C3D8R
  *Element, type=C3D6
  *Element, type=C3D8R
  *Element, type=C3D6
  *Element, type=C3D8R
  *Element, type=C3D6
  *Element, type=C3D8R
  *Element, type=C3D6
  *Element, type=C3D8R
  *Element, type=C3D6
  *Element, type=C3D8R
  *Element, type=C3D6
  *Element, type=C3D8R
  *Element, type=C3D6
  *Element, type=C3D8R
  *Element, type=C3D6
  *Element, type=C3D8R
  *Element, type=C3D6
  *Element, type=C3D8R
  *Element, type=C3D6
  *Element, type=C3D8R
  *Element, type=C3D6
  *Element, type=C3D8R
  *Element, type=C3D6
  *Element, type=C3D8R
  *Element, type=C3D6
  *Element, type=C3D8R
  *Element, type=C3D6
  *Element, type=C3D8R
  *Element, type=C3D6
  *Element, type=C3D8R
  *Element, type=C3D6
  *Element, type=C3D8R
  *Element, type=C3D6
  *Element, type=C3D8R
  *Element, type=C3D6
  *Element, type=C3D8R
  *Element, type=C3D6
  *Element, type=C3D8R
  *Element, type=C3D6
  *Element, type=C3D8R
  *Element, type=C3D6
  *Element, type=C3D8R
  *Element, type=C3D6
  *Element, type=C3D8R
  *Element, type=C3D6
  *Element, type=C3D8R
  *Element, type=C3D6
  *Element, type=C3D8R
  *Element, type=C3D6
  *Element, type=C3D8R
  *Element, type=C3D6
  *Element, type=C3D8R
  *Element, type=C3D6
  *Element, type=C3D8R
  *Element, type=C3D6
  *Element, type=C3D8R
  *Element, type=C3D6
  *Element, type=C3D8R
  *Element, type=C3D6
  *Element, type=C3D8R
  *Element, type=C3D6
  *Element, type=C3D8R
  *Element, type=C3D6
  *Element, type=C3D8R
  *Element, type=C3D6
  *Element, type=C3D8R
  *Element, type=C3D6
  *Element, type=C3D8R
  *Element, type=C3D6
  *Element, type=C3D8R
  *Element, type=C3D6
  *Element, type=C3D8R
  *Element, type=C3D6
  *Element, type=C3D8R
  *Element, type=C3D6
  *Element, type=C3D8R
  *Element, type=C3D6
  *Element, type=C3D8R
  *Element, type=C3D6
  *Element, type=C3D8R
  *Element, type=C3D6
  *Element, type=C3D8R
  *Element, type=C3D6
  *Element, type=C3D8R
  *Element, type=C3D6
  *Element, type=C3D8R
  *Element, type=C3D6
  *Element, type=C3D8R
  *Element, type=C3D6
  *Element, type=C3D8R
  *Element, type=C3D6
  *Element, type=C3D8R
  *Element, type=C3D6
  *Element, type=C3D8R
  *Element, type=C3D6
  *Element, type=C3D8R
  *Element, type=C3D6
  *Element, type=C3D8R
  *Element, type=C3D6
  *Element, type=C3D8R
  *Element, type=C3D6
  *Element, type=C3D8R
  *Element, type=C3D6
  *Element, type=C3D8R
  *Element, type=C3D6
  *Element, type=C3D8R
  *Element, type=C3D6
  *Element, type=C3D8R
  *Element, type=C3D6
  *Element, type=C3D8R
  *Element, type=C3D6
  *Element, type=C3D8R
  *Element, type=C3D6
  *Element, type=C3D8R
  *Element, type=C3D6
  *Element, type=C3D8R
  *Element, type=C3D6
  *Element, type=C3D8R
  *Element, type=C3D6
  *Element, type=C3D8R
  *Element, type=C3D6
  *Element, type=C3D8R
  *Element, type=C3D6
  *Element, type=C3D8R
  *Element, type=C3D6
  *Element, type=C3D8R
  *Element, type=C3D6
  *Element, type=C3D8R
  *Element, type=C3D6
  *Element, type=C3D8R
  *Element, type=C3D6
  *Element, type=C3D8R
  *Element, type=C3D6
  *Element, type=C3D8R
  *Element, type=C3D6
  *Element, type=C3D8R
  *Element, type=C3D6
  *Element, type=C3D8R
  *Element, type=C3D6
  *Element, type=C3D8R
  *Element, type=C3D6
  *Element, type=C3D8R
  *Element, type=C3D6
  *Element, type=C3D8R
  *Element, type=C3D6
  *Element, type=C3D8R
  *Element, type=C3D6
  *Element, type=C3D8R
  *Element, type=C3D6
  *Element, type=C3D8R
  *Element, type=C3D6
  *Element, type=C3D8R
  *Element, type=C3D6
  *Element, type=C3D8R
  *Element, type=C3D6
  *Element, type=C3D8R
  *Element, type=C3D6
  *Element, type=C3D8R
  *Element, type=C3D6
  *Element, type=C3D8R
  *Element, type=C3D6
  *Element, type=C3D8R
  *Element, type=C3D6
  *Element, type=C3D8R
  *Element, type=C3D6
  *Element, type=C3D8R
  *Element, type=C3D6
  *Element, type=C3D8R
  *Element, type=C3D6
  *Element, type=C3D8R
  *Element, type=C3D6
  *Element, type=C3D8R
  *Element, type=C3D6
  *Element, type=C3D8R
  *Element, type=C3D6
  *Element, type=C3D8R
  *Element, type=C3D6
  *Element, type=C3D8R
  *Element, type=C3D6
  *Element, type=C3D8R
  *Element, type=C3D6
  *Element, type=C3D8R
  *Element, type=C3D6
  *Element, type=C3D8R
  *Element, type=C3D6
  *Element, type=C3D8R
  *Element, type=C3D6
  *Element, type=C3D8R
  *Element, type=C3D6
  *Element, type=C3D8R
  *Element, type=C3D6
  *Element, type=C3D8R
  *Element, type=C3D6
  *Element, type=C3D8R
  *Element, type=C3D6
  *Element, type=C3D8R
  *Element, type=C3D6
  *Element, type=C3D8R
  *Element, type=C3D6
  *Element, type=C3D8R
  *Element, type=C3D6
  *Element, type=C3D8R
  *Element, type=C3D6
  *Element, type=C3D8R
  *Element, type=C3D6
  *Element, type=C3D8R
  *Element, type=C3D6
  *Element, type=C3D8R
  *Element, type=C3D6
  *Element, type=C3D8R
  *Element, type=C3D6
  *Element, type=C3D8R
  *Element, type=C3D6
  *Element, type=C3D8R
  *Element, type=C3D6
  *Element, type=C3D8R
  *Element, type=C3D6
  *Element, type=C3D8R
  *Element, type=C3D6
  *Element, type=C3D8R
  *Element, type=C3D6
  *Element, type=C3D8R
  *Element, type=C3D6
  *Element, type=C3D8R
  *Element, type=C3D6
  *Element, type=C3D8R
  *Element, type=C3D6
  *Element, type=C3D8R
  *Element, type=C3D6
  *Element, type=C3D8R
  *Element, type=C3D6
  *Element, type=C3D8R
  *Element, type=C3D6
  *Element, type=C3D8R
  *Element, type=C3D6
  *Element, type=C3D8R
  *Element, type=C3D6
  *Element, type=C3D8R
  *Element, type=C3D6
  *Element, type=C3D8R
  *Element, type=C3D6
  *Element, type=C3D8R
  *Element, type=C3D6
  *Element, type=C3D8R
  *Element, type=C3D6
  *Element, type=C3D8R
  *Element, type=C3D6
  *Element, type=C3D8R
  *Element, type=C3D6
  *Element, type=C3D8R
  *Element, type=C3D6
  *Element, type=C3D8R
  *Element, type=C3D6
  *Element, type=C3D8R
  *Element, type=C3D6
  *Element, type=C3D8R
  *Element, type=C3D6
  *Element, type=C3D8R
  *Element, type=C3D6
  *Element, type=C3D8R
  *Element, type=C3D6
  *Element, type=C3D8R
  *Element, type=C3D6
  *Element, type=C3D8R
  *Element, type=C3D6
  *Element, type=C3D8R
  *Element, type=C3D6
  *Element, type=C3D8R
  *Element, type=C3D6
  *Element, type=C3D8R
  *Element, type=C3D6
  *Element, type=C3D8R
  *Element, type=C3D6
  *Element, type=C3D8R
  *Element, type=C3D6
  *Element, type=C3D8R
  *Element, type=C3D6
  *Element, type=C3D8R
  *Element, type=C3D6
  *Element, type=C3D8R
  *Element, type=C3D6
  *Element, type=C3D8R
  *Element, type=C3D6
  *Element, type=C3D8R
  *Element, type=C3D6
  *Element, type=C3D8R
  *Element, type=C3D6
  *Element, type=C3D8R
  *Element, type=C3D6
  *Element, type=C3D8R
  *Element, type=C3D6
  *Element, type=C3D8R
  *Element, type=C3D6
  *Element, type=C3D8R
  *Element, type=C3D6
  *Element, type=C3D8R
  *Element, type=C3D6
  *Element, type=C3D8R
  *Element, type=C3D6
  *Element, type=C3D8R
  *Element, type=C3D6
  *Element, type=C3D8R
  *Element, type=C3D6
  *Element, type=C3D8R
  *Element, type=C3D6
  *Element, type=C3D8R
  *Element, type=C3D6
  *Element, type=C3D8R
  *Element, type=C3D6
  *Element, type=C3D8R
  *Element, type=C3D6
  *Element, type=C3D8R
  *Element, type=C3D6
  *Element, type=C3D8R
  *Element, type=C3D6
  *Element, type=C3D8R
  *Element, type=C3D6
  *Element, type=C3D8R
  *Element, type=C3D6
  *Element, type=C3D8R
  *Element, type=C3D6
  *Element, type=C3D8R
  *Element, type=C3D6
  *Element, type=C3D8R
  *Element, type=C3D6
  *Element, type=C3D8R
  *Element, type=C3D6
  *Element, type=C3D8R
  *Element, type=C3D6
  *Element, type=C3D8R
  *Element, type=C3D6
  *Element, type=C3D8R
  *Element, type=C3D6
  *Element, type=C3D8R
  *Element, type=C3D6
  *Element, type=C3D8R
  *Element, type=C3D6
  *Element, type=C3D8R
  *Element, type=C3D6
  *Element, type=C3D8R
  *Element, type=C3D6
  *Element, type=C3D8R
  *Element, type=C3D6
  *Element, type=C3D8R
  *Element, type=C3D6
  *Element, type=C3D8R
  *Element, type=C3D6
  *Element, type=C3D8R
  *Element, type=C3D6
  *Element, type=C3D8R
  *Element, type=C3D6
  *Element, type=C3D8R
  *Element, type=C3D6
  *Element, type=C3D8R
  *Element, type=C3D6
  *Element, type=C3D8R
  *Element, type=C3D6
  *Element, type=C3D8R
  *Element, type=C3D6
  *Element, type=C3D8R
  *Element, type=C3D6
  *Element, type=C3D8R
  *Element, type=C3D6
  *Element, type=C3D8R
  *Element, type=C3D6
  *Element, type=C3D8R
  *Element, type=C3D6
  *Element, type=C3D8R
  *Element, type=C3D6
  *Element, type=C3D8R
  *Element, type=C3D6
  *Element, type=C3D8R
  *Element, type=C3D6
  *Element, type=C3D8R
  *Element, type=C3D6
  *Element, type=C3D8R
  *Element, type=C3D6
  *Element, type=C3D8R
  *Element, type=C3D6
  *Element, type=C3D8R
  *Element, type=C3D6
  *Element, type=C3D8R
  *Element, type=C3D6
  *Element, type=C3D8R
  *Element, type=C3D6
  *Element, type=C3D8R
  *Element, type=C3D6
  *Element, type=C3D8R
  *Element, type=C3D6
  *Element, type=C3D8R
  *Element, type=C3D6
  *Element, type=C3D8R
  *Element, type=C3D6
  *Element, type=C3D8R
  *Element, type=C3D6
  *Element, type=C3D8R
  *Element, type=C3D6
  *Element, type=C3D8R
  *Element, type=C3D6
  *Element, type=C3D8R
  *Element, type=C3D6
  *Element, type=C3D8R
  *Element, type=C3D6
  *Element, type=C3D8R
  *Element, type=C3D6
  *Element, type=C3D8R
  *Element, type=C3D6
  *Element, type=C3D8R
  *Element, type=C3D6
  *Element, type=C3D8R
  *Element, type=C3D6
  *Element, type=C3D8R
  *Element, type=C3D6
  *Element, type=C3D8R
  *Element, type=C3D6
  *Element, type=C3D8R
  *Element, type=C3D6
  *Element, type=C3D8R
  *Element, type=C3D6
  *Element, type=C3D8R
  *Element, type=C3D6
  *Element, type=C3D8R
  *Element, type=C3D6
  *Element, type=C3D8R
  *Element, type=C3D6
  *Element, type=C3D8R
  *Element, type=C3D6
  *Element, type=C3D8R
  *Element, type=C3D6
  *Element, type=C3D8R
  *Element, type=C3D6
  *Element, type=C3D8R
  *Element, type=C3D6
  *Element, type=C3D8R
  *Element, type=C3D6
  *Element, type=C3D8R
  *Element, type=C3D6
  *Element, type=C3D8R
  *Element, type=C3D6
  *Element, type=C3D8R
  *Element, type=C3D6
  *Element, type=C3D8R
  *Element, type=C3D6
  *Element, type=C3D8R
  *Element, type=C3D6
  *Element, type=C3D8R
  *Element, type=C3D6
  *Element, type=C3D8R
  *Element, type=C3D6
  *Element, type=C3D8R
  *Element, type=C3D6
  *Element, type=C3D8R
  *Element, type=C3D6
  *Element, type=C3D8R
  *Element, type=C3D6
  *Element, type=C3D8R
  *Element, type=C3D6
  *Element, type=C3D8R
  *Element, type=C3D6
  *Element, type=C3D8R
  *Element, type=C3D6
  *Element, type=C3D8R
  *Element, type=C3D6
  *Element, type=C3D8R
  *Element, type=C3D6
  *Element, type=C3D8R
  *Element, type=C3D6
  *Element, type=C3D8R
  *Element, type=C3D6
  *Element, type=C3D8R
  *Element, type=C3D6
  *Element, type=C3D8R
  *Element, type=C3D6
  *Element, type=C3D8R
  *Element, type=C3D6
  *Element, type=C3D8R
  *Element, type=C3D6
  *Element, type=C3D8R
  *Element, type=C3D6
  *Element, type=C3D8R
  *Element, type=C3D6
  *Element, type=C3D8R
  *Element, type=C3D6
  *Element, type=C3D8R
  *Element, type=C3D6
  *Element, type=C3D8R
  *Element, type=C3D6
  *Element, type=C3D8R
  *Element, type=C3D6
  *Element, type=C3D8R
  *Element, type=C3D6
  *Element, type=C3D8R
  *Element, type=C3D6
  *Element, type=C3D8R
  *Element, type=C3D6
  *Element, type=C3D8R
  *Element, type=C3D6
  *Element, type=C3D8R
  *Element, type=C3D6
  *Element, type=C3D8R
  *Element, type=C3D6
  *Element, type=C3D8R
  *Element, type=C3D6
  *Element, type=C3D8R
  *Element, type=C3D6
  *Element, type=C3D8R
  *Element, type=C3D6
  *Element, type=C3D8R
  *Element, type=C3D6
  *Element, type=C3D8R
  *Element, type=C3D6
  *Element, type=C3D8R
  *Element, type=C3D6
  *Element, type=C3D8R
  *Element, type=C3D6
  *Element, type=C3D8R
  *Element, type=C3D6
  *Element, type=C3D8R
  *Element, type=C3D6
  *Element, type=C3D8R
  *Element, type=C3D6
  *Element, type=C3D8R
  *Element, type=C3D6
  *Element, type=C3D8R
  *Element, type=C3D6
  *Element, type=C3D8R
  *Element, type=C3D6
  *Element, type=C3D8R
  *Element, type=C3D6
  *Element, type=C3D8R
  *Element, type=C3D6
  *Element, type=C3D8R
  *Element, type=C3D6
  *Element, type=C3D8R
  *Element, type=C3D6
  *Element, type=C3D8R
  *Element, type=C3D6
  *Element, type=C3D8R
  *Element, type=C3D6
  *Element, type=C3D8R
  *Element, type=C3D6
  *Element, type=C3D8R
  *Element, type=C3D6
  *Element, type=C3D8R
  *Element, type=C3D6
  *Element, type=C3D8R
  *Element, type=C3D6
  *Element, type=C3D8R
  *Element, type=C3D6
  *Element, type=C3D8R
  *Element, type=C3D6
  *Element, type=C3D8R
  *Element, type=C3D6
  *Element, type=C3D8R
  *Element, type=C3D6
  *Element, type=C3D8R
  *Element, type=C3D6
  *Element, type=C3D8R
  *Element, type=C3D6
  *Element, type=C3D8R
  *Element, type=C3D6
  *Element, type=C3D8R
  *Element, type=C3D6
  *Element, type=C3D8R
  *Element, type=C3D6
  *Element, type=C3D8R
  *Element, type=C3D6
  *Element, type=C3D8R
  *Element, type=C3D6
  *Element, type=C3D8R
  *Element, type=C3D6
  *Element, type=C3D8R
  *Element, type=C3D6
  *Element, type=C3D8R
  *Element, type=C3D6
  *Element, type=C3D8R
  *Element, type=C3D6
  *Element, type=C3D8R
  *Element, type=C3D6
  *Element, type=C3D8R
  *Element, type=C3D6
  *Element, type=C3D8R
  *Element, type=C3D6
  *Element, type=C3D8R
  *Element, type=C3D6
  *Element, type=C3D8R
  *Element, type=C3D6
  *Element, type=C3D8R
  *Element, type=C3D6
  *Element, type=C3D8R
  *Element, type=C3D6
  *Element, type=C3D8R
  *Element, type=C3D6
  *Element, type=C3D8R
  *Element, type=C3D6
  *Element, type=C3D8R
  *Element, type=C3D6
  *Element, type=C3D8R
  *Element, type=C3D6
  *Element, type=C3D8R
  *Element, type=C3D6
  *Element, type=C3D8R
  *Element, type=C3D6
  *Element, type=C3D8R
  *Element, type=C3D6
  *Element, type=C3D8R
  *Element, type=C3D6
  *Element, type=C3D8R
  *Element, type=C3D6
  *Element, type=C3D8R
  *Element, type=C3D6
  *Element, type=C3D8R
  *Element, type=C3D6
  *Element, type=C3D8R
  *Element, type=C3D6
  *Element, type=C3D8R
  *Element, type=C3D6
  *Element, type=C3D8R
  *Element, type=C3D6
  *Element, type=C3D8R
  *Element, type=C3D6
  *Element, type=C3D8R
  *Element, type=C3D6
  *Element, type=C3D8R
  *Element, type=C3D6
  *Element, type=C3D8R
  *Element, type=C3D6
  *Element, type=C3D8R
  *Element, type=C3D6
  *Element, type=C3D8R
  *Element, type=C3D6
  *Element, type=C3D8R
  *Element, type=C3D6
  *Element, type=C3D8R
  *Element, type=C3D6
  *Element, type=C3D8R
  *Element, type=C3D6
  *Element, type=C3D8R
  *Element, type=C3D6
  *Element, type=C3D8R
  *Element, type=C3D6
  *Element, type=C3D8R
  *Element, type=C3D6
  *Element, type=C3D8R
  *Element, type=C3D6
  *Element, type=C3D8R
  *Element, type=C3D6
  *Element, type=C3D8R
  *Element, type=C3D6
  *Element, type=C3D8R
  *Element, type=C3D6
  *Element, type=C3D8R
  *Element, type=C3D6
  *Element, type=C3D8R
  *Element, type=C3D6
  *Element, type=C3D8R
  *Element, type=C3D6
  *Element, type=C3D8R
  *Element, type=C3D6
  *Element, type=C3D8R
  *Element, type=C3D6
  *Element, type=C3D8R
  *Element, type=C3D6
  *Element, type=C3D8R
  *Element, type=C3D6
  *Element, type=C3D8R
  *Element, type=C3D6
  *Element, type=C3D8R
  *Element, type=C3D6
  *Element, type=C3D8R
  *Element, type=C3D6
  *Element, type=C3D8R
  *Element, type=C3D6
  *Element, type=C3D8R
  *Element, type=C3D6
  *Element, type=C3D8R
  *Element, type=C3D6
  *Element, type=C3D8R
  *Element, type=C3D6
  *Element, type=C3D8R
  *Element, type=C3D6
  *Element, type=C3D8R
  *Element, type=C3D6
  *Element, type=C3D8R
  *Element, type=C3D6
  *Element, type=C3D8R
  *Element, type=C3D6
  *Element, type=C3D8R
  *Element, type=C3D6
  *Element, type=C3D8R
  *Element, type=C3D6
  *Element, type=C3D8R
  *Element, type=C3D6
  *Element, type=C3D8R
  *Element, type=C3D6
  *Element, type=C3D8R
  *Element, type=C3D6
  *Element, type=C3D8R
  *Element, type=C3D6
  *Element, type=C3D8R
  *Element, type=C3D6
  *Element, type=C3D8R
  *Element, type=C3D6
  *Element, type=C3D8R
  *Element, type=C3D6
  *Element, type=C3D8R
  *Element, type=C3D6
  *Element, type=C3D8R
  *Element, type=C3D6
  *Element, type=C3D8R
  *Element, type=C3D6
  *Element, type=C3D8R
  *Element, type=C3D6
  *Element, type=C3D8R
  *Element, type=C3D6
  *Element, type=C3D8R
  *Element, type=C3D6
  *Element, type=C3D8R
  *Element, type=C3D6
  *Element, type=C3D8R
  *Element, type=C3D6
  *Element, type=C3D8R
  *Element, type=C3D6
  *Element, type=C3D8R
  *Element, type=C3D6
  *Element, type=C3D8R
  *Element, type=C3D6
  *Element, type=C3D8R
  *Element, type=C3D6
  *Element, type=C3D8R
  *Element, type=C3D6
  *Element, type=C3D8R
  *Element, type=C3D6
  *Element, type=C3D8R
  *Element, type=C3D6
  *Element, type=C3D8R
  *Element, type=C3D6
  *Element, type=C3D8R
  *Element, type=C3D6
  *Element, type=C3D8R
  *Element, type=C3D6
  *Element, type=C3D8R
  *Element, type=C3D6
  *Element, type=C3D8R
  *Element, type=C3D6
  *Element, type=C3D8R
  *Element, type=C3D6
  *Element, type=C3D8R
  *Element, type=C3D6
  *Element, type=C3D8R
  *Element, type=C3D6
  *Element, type=C3D8R
  *Element, type=C3D6
  *Element, type=C3D8R
  *Element, type=C3D6
  *Element, type=C3D8R
  *Element, type=C3D6
  *Element, type=C3D8R
  *Element, type=C3D6
  *Element, type=C3D8R
  *Element, type=C3D6
  *Element, type=C3D8R
  *Element, type=C3D6
  *Element, type=C3D8R
  *Element, type=C3D6
  *Element, type=C3D8R
  *Element, type=C3D6
  *Element, type=C3D8R
  *Element, type=C3D6
  *Element, type=C3D8R
  *Element, type=C3D6
  *Element, type=C3D8R
  *Element, type=C3D6
  *Element, type=C3D8R
  *Element, type=C3D6
  *Element, type=C3D8R
  *Element, type=C3D6
  *Element, type=C3D8R
  *Element, type=C3D6
  *Element, type=C3D8R
  *Element, type=C3D6
  *Element, type=C3D8R
  *Element, type=C3D6
  *Element, type=C3D8R
  *Element, type=C3D6
  *Element, type=C3D8R
  *Element, type=C3D6
  *Element, type=C3D8R
  *Element, type=C3D6
  *Element, type=C3D8R
  *Element, type=C3D6
  *Element, type=C3D8R
  *Element, type=C3D6
  *Element, type=C3D8R
  *Element, type=C3D6
  *Element, type=C3D8R
  *Element, type=C3D6
  *Element, type=C3D8R
  *Element, type=C3D6
  *Element, type=C3D8R
  *Element, type=C3D6
  *Element, type=C3D8R
  *Element, type=C3D6
  *Element, type=C3D8R
  *Element, type=C3D6
  *Element, type=C3D8R
  *Element, type=C3D6
  *Element, type=C3D8R
  *Element, type=C3D6
  *Element, type=C3D8R
  *Element, type=C3D6
  *Element, type=C3D8R
  *Element, type=C3D6
  *Element, type=C3D8R
  *Element, type=C3D6
  *Element, type=C3D8R
  *Element, type=C3D6
  *Element, type=C3D8R
  *Element, type=C3D6
  *Element, type=C3D8R
  *Element, type=C3D6
  *Element, type=C3D8R
  *Element, type=C3D6
  *Element, type=C3D8R
  *Element, type=C3D6
  *Element, type=C3D8R
  *Element, type=C3D6
  *Element, type=C3D8R
  *Element, type=C3D6
  *Element, type=C3D8R
  *Element, type=C3D6
  *Element, type=C3D8R
  *Element, type=C3D6
  *Element, type=C3D8R
  *Element, type=C3D6
  *Element, type=C3D8R
  *Element, type=C3D6
  *Element, type=C3D8R
  *Element, type=C3D6
  *Element, type=C3D8R
  *Element, type=C3D6
  *Element, type=C3D8R
  *Element, type=C3D6
  *Element, type=C3D8R
  *Element, type=C3D6
  *Element, type=C3D8R
  *Element, type=C3D6
  *Element, type=C3D8R
  *Element, type=C3D6
  *Element, type=C3D8R
  *Element, type=C3D6
  *Element, type=C3D8R
  *Element, type=C3D6
  *Element, type=C3D8R
  *Element, type=C3D6
  *Element, type=C3D8R
  *Element, type=C3D6
  *Element, type=C3D8R
  *Element, type=C3D6
  *Element, type=C3D8R
  *Element, type=C3D6
  *Element, type=C3D8R
  *Element, type=C3D6
  *Element, type=C3D8R
  *Element, type=C3D6
  *Element, type=C3D8R
  *Element, type=C3D6
  *Element, type=C3D8R
  *Element, type=C3D6
  *Element, type=C3D8R
  *Element, type=C3D6
  *Element, type=C3D8R
  *Element, type=C3D6
  *Element, type=C3D8R
  *Element, type=C3D6
  *Element, type=C3D8R
  *Element, type=C3D6
  *Element, type=C3D8R
  *Element, type=C3D6
  *Element, type=C3D8R
  *Element, type=C3D6
  *Element, type=C3D8R
  *Element, type=C3D6
  *Element, type=C3D8R
  *Element, type=C3D6
  *Element, type=C3D8R
  *Element, type=C3D6
  *Element, type=C3D8R
  *Element, type=C3D6
  *Element, type=C3D8R
  *Element, type=C3D6
  *Element, type=C3D8R
  *Element, type=C3D6
  *Element, type=C3D8R
  *Element, type=C3D6
  *Element, type=C3D8R
  *Element, type=C3D6
  *Element, type=C3D8R
  *Element, type=C3D6
  *Element, type=C3D8R
  *Element, type=C3D6
  *Element, type=C3D8R
  *Element, type=C3D6
  *Element, type=C3D8R
  *Element, type=C3D6
  *Element, type=C3D8R
  *Element, type=C3D6
  *Element, type=C3D8R
  *Element, type=C3D6
  *Element, type=C3D8R
  *Element, type=C3D6
  *Element, type=C3D8R
  *Element, type=C3D6
  *Element, type=C3D8R
  *Element, type=C3D6
  *Element, type=C3D8R
  *Element, type=C3D6
  *Element, type=C3D8R
  *Element, type=C3D6
  *Element, type=C3D8R
  *Element, type=C3D6
  *Element, type=C3D8R
  *Element, type=C3D6
  *Element, type=C3D8R
  *Element, type=C3D6
  *Element, type=C3D8R
  *Element, type=C3D6
  *Element, type=C3D8R
  *Element, type=C3D6
  *Element, type=C3D8R
  *Element, type=C3D6
  *Element, type=C3D8R
  *Element, type=C3D6
  *Element, type=C3D8R
[...]
             BETWEEN THIS NODE AND THE MASTER SURFACE WITH NODE 1857 INSTANCE 
             PART-1-1 IS REMOVED.  CHECK IF THIS IS ACCEPTABLE.

 ***WARNING: OVERCONSTRAINT CHECKS: NODE 2240 INSTANCE PART-1-1 IS USED MORE 
             THAN ONCE AS A SLAVE NODE IN THE *TIE KEYWORD.  THE CONSTRAINT 
             BETWEEN THIS NODE AND THE MASTER SURFACE WITH NODE 1857 INSTANCE 
             PART-1-1 IS REMOVED.  CHECK IF THIS IS ACCEPTABLE.

 ***WARNING: OVERCONSTRAINT CHECKS: NODE 2244 INSTANCE PART-1-1 IS USED MORE 
             THAN ONCE AS A SLAVE NODE IN THE *TIE KEYWORD.  THE CONSTRAINT 
             BETWEEN THIS NODE AND THE MASTER SURFACE WITH NODE 1857 INSTANCE 
             PART-1-1 IS REMOVED.  CHECK IF THIS IS ACCEPTABLE.

 ***WARNING: OVERCONSTRAINT CHECKS: NODE 2246 INSTANCE PART-1-1 IS USED MORE 
             THAN ONCE AS A SLAVE NODE IN THE *TIE KEYWORD.  THE CONSTRAINT 
             BETWEEN THIS NODE AND THE MASTER SURFACE WITH NODE 1830 INSTANCE 
             PART-1-1 IS REMOVED.  CHECK IF THIS IS ACCEPTABLE.

 ***WARNING: OVERCONSTRAINT CHECKS: NODE 2249 INSTANCE PART-1-1 IS USED MORE 
             THAN ONCE AS A SLAVE NODE IN THE *TIE KEYWORD.  THE CONSTRAINT 
             BETWEEN THIS NODE AND THE MASTER SURFACE WITH NODE 1823 INSTANCE 
             PART-1-1 IS REMOVED.  CHECK IF THIS IS ACCEPTABLE.

 ***WARNING: OVERCONSTRAINT CHECKS: NODE 2253 INSTANCE PART-1-1 IS USED MORE 
             THAN ONCE AS A SLAVE NODE IN THE *TIE KEYWORD.  THE CONSTRAINT 
             BETWEEN THIS NODE AND THE MASTER SURFACE WITH NODE 1866 INSTANCE 
             PART-1-1 IS REMOVED.  CHECK IF THIS IS ACCEPTABLE.

 ***WARNING: OVERCONSTRAINT CHECKS: NODE 2255 INSTANCE PART-1-1 IS USED MORE 
             THAN ONCE AS A SLAVE NODE IN THE *TIE KEYWORD.  THE CONSTRAINT 
             BETWEEN THIS NODE AND THE MASTER SURFACE WITH NODE 1869 INSTANCE 
             PART-1-1 IS REMOVED.  CHECK IF THIS IS ACCEPTABLE.

 ***WARNING: OVERCONSTRAINT CHECKS: NODE 2258 INSTANCE PART-1-1 IS USED MORE 
             THAN ONCE AS A SLAVE NODE IN THE *TIE KEYWORD.  THE CONSTRAINT 
             BETWEEN THIS NODE AND THE MASTER SURFACE WITH NODE 1870 INSTANCE 
             PART-1-1 IS REMOVED.  CHECK IF THIS IS ACCEPTABLE.

 ***WARNING: OVERCONSTRAINT CHECKS: NODE 2261 INSTANCE PART-1-1 IS USED MORE 
             THAN ONCE AS A SLAVE NODE IN THE *TIE KEYWORD.  THE CONSTRAINT 
             BETWEEN THIS NODE AND THE MASTER SURFACE WITH NODE 1872 INSTANCE 
             PART-1-1 IS REMOVED.  CHECK IF THIS IS ACCEPTABLE.

 ***WARNING: OVERCONSTRAINT CHECKS: NODE 2264 INSTANCE PART-1-1 IS USED MORE 
             THAN ONCE AS A SLAVE NODE IN THE *TIE KEYWORD.  THE CONSTRAINT 
             BETWEEN THIS NODE AND THE MASTER SURFACE WITH NODE 1874 INSTANCE 
             PART-1-1 IS REMOVED.  CHECK IF THIS IS ACCEPTABLE.

 ***WARNING: OVERCONSTRAINT CHECKS: NODE 2319 INSTANCE PART-1-1 IS USED MORE 
             THAN ONCE AS A SLAVE NODE IN THE *TIE KEYWORD.  THE CONSTRAINT 
             BETWEEN THIS NODE AND THE MASTER SURFACE WITH NODE 1796 INSTANCE 
             PART-1-1 IS REMOVED.  CHECK IF THIS IS ACCEPTABLE.

 ***WARNING: OVERCONSTRAINT CHECKS: NODE 2321 INSTANCE PART-1-1 IS USED MORE 
             THAN ONCE AS A SLAVE NODE IN THE *TIE KEYWORD.  THE CONSTRAINT 
             BETWEEN THIS NODE AND THE MASTER SURFACE WITH NODE 1833 INSTANCE 
             PART-1-1 IS REMOVED.  CHECK IF THIS IS ACCEPTABLE.

 ***WARNING: OVERCONSTRAINT CHECKS: NODE 2324 INSTANCE PART-1-1 IS USED MORE 
             THAN ONCE AS A SLAVE NODE IN THE *TIE KEYWORD.  THE CONSTRAINT 
             BETWEEN THIS NODE AND THE MASTER SURFACE WITH NODE 1834 INSTANCE 
             PART-1-1 IS REMOVED.  CHECK IF THIS IS ACCEPTABLE.

 ***WARNING: OVERCONSTRAINT CHECKS: NODE 2327 INSTANCE PART-1-1 IS USED MORE 
             THAN ONCE AS A SLAVE NODE IN THE *TIE KEYWORD.  THE CONSTRAINT 
             BETWEEN THIS NODE AND THE MASTER SURFACE WITH NODE 1836 INSTANCE 
             PART-1-1 IS REMOVED.  CHECK IF THIS IS ACCEPTABLE.

 ***WARNING: OVERCONSTRAINT CHECKS: NODE 2330 INSTANCE PART-1-1 IS USED MORE 
             THAN ONCE AS A SLAVE NODE IN THE *TIE KEYWORD.  THE CONSTRAINT 
             BETWEEN THIS NODE AND THE MASTER SURFACE WITH NODE 1838 INSTANCE 
             PART-1-1 IS REMOVED.  CHECK IF THIS IS ACCEPTABLE.

 ***WARNING: OVERCONSTRAINT CHECKS: NODE 2333 INSTANCE PART-1-1 IS USED MORE 
             THAN ONCE AS A SLAVE NODE IN THE *TIE KEYWORD.  THE CONSTRAINT 
             BETWEEN THIS NODE AND THE MASTER SURFACE WITH NODE 1840 INSTANCE 
             PART-1-1 IS REMOVED.  CHECK IF THIS IS ACCEPTABLE.

 ***WARNING: OVERCONSTRAINT CHECKS: NODE 2336 INSTANCE PART-1-1 IS USED MORE 
             THAN ONCE AS A SLAVE NODE IN THE *TIE KEYWORD.  THE CONSTRAINT 
             BETWEEN THIS NODE AND THE MASTER SURFACE WITH NODE 1842 INSTANCE 
             PART-1-1 IS REMOVED.  CHECK IF THIS IS ACCEPTABLE.

 ***WARNING: OVERCONSTRAINT CHECKS: NODE 2339 INSTANCE PART-1-1 IS USED MORE 
             THAN ONCE AS A SLAVE NODE IN THE *TIE KEYWORD.  THE CONSTRAINT 
             BETWEEN THIS NODE AND THE MASTER SURFACE WITH NODE 1783 INSTANCE 
             PART-1-1 IS REMOVED.  CHECK IF THIS IS ACCEPTABLE.

 ***WARNING: OVERCONSTRAINT CHECKS: NODE 2343 INSTANCE PART-1-1 IS USED MORE 
             THAN ONCE AS A SLAVE NODE IN THE *TIE KEYWORD.  THE CONSTRAINT 
             BETWEEN THIS NODE AND THE MASTER SURFACE WITH NODE 1787 INSTANCE 
             PART-1-1 IS REMOVED.  CHECK IF THIS IS ACCEPTABLE.

 ***WARNING: OVERCONSTRAINT CHECKS: NODE 2345 INSTANCE PART-1-1 IS USED MORE 
             THAN ONCE AS A SLAVE NODE IN THE *TIE KEYWORD.  THE CONSTRAINT 
             BETWEEN THIS NODE AND THE MASTER SURFACE WITH NODE 1818 INSTANCE 
             PART-1-1 IS REMOVED.  CHECK IF THIS IS ACCEPTABLE.

 ***WARNING: OVERCONSTRAINT CHECKS: NODE 2348 INSTANCE PART-1-1 IS USED MORE 
             THAN ONCE AS A SLAVE NODE IN THE *TIE KEYWORD.  THE CONSTRAINT 
             BETWEEN THIS NODE AND THE MASTER SURFACE WITH NODE 1819 INSTANCE 
             PART-1-1 IS REMOVED.  CHECK IF THIS IS ACCEPTABLE.

 ***WARNING: OVERCONSTRAINT CHECKS: NODE 2351 INSTANCE PART-1-1 IS USED MORE 
             THAN ONCE AS A SLAVE NODE IN THE *TIE KEYWORD.  THE CONSTRAINT 
             BETWEEN THIS NODE AND THE MASTER SURFACE WITH NODE 1821 INSTANCE 
             PART-1-1 IS REMOVED.  CHECK IF THIS IS ACCEPTABLE.

 ***WARNING: OVERCONSTRAINT CHECKS: NODE 2591 INSTANCE PART-1-1 IS USED MORE 
             THAN ONCE AS A SLAVE NODE IN THE *TIE KEYWORD.  THE CONSTRAINT 
             BETWEEN THIS NODE AND THE MASTER SURFACE WITH NODE 1736 INSTANCE 
             PART-1-1 IS REMOVED.  CHECK IF THIS IS ACCEPTABLE.

 ***WARNING: OVERCONSTRAINT CHECKS: NODE 2593 INSTANCE PART-1-1 IS USED MORE 
             THAN ONCE AS A SLAVE NODE IN THE *TIE KEYWORD.  THE CONSTRAINT 
             BETWEEN THIS NODE AND THE MASTER SURFACE WITH NODE 1740 INSTANCE 
             PART-1-1 IS REMOVED.  CHECK IF THIS IS ACCEPTABLE.
  *surface, type=ELEMENT, name=ASSEMBLY_CYCLIC1
  *surface, type=ELEMENT, name=ASSEMBLY_CYCLIC2
  *surface, type=ELEMENT, name=ASSEMBLY_PRESSURE
  *surface, type=ELEMENT, name=ASSEMBLY_TIE1-1
  *surface, type=ELEMENT, name=ASSEMBLY_TIE1-2
  *surface, type=ELEMENT, name=ASSEMBLY_TIE2-1

 ***NOTE: DUE TO EXCESSIVE REPORTING, THE ECHO OF THE *SURFACE OPTION IS BEING 
          SUPPRESSED.
  *tie, name=ASSEMBLY_TIE1-1, adjust=YES
  *tie, name=ASSEMBLY_TIE2-1, adjust=YES
  *tie, name=ASSEMBLY_TIE3-1, adjust=YES
  *tie, name=ASSEMBLY_TIE4-1, adjust=YES
  *tie, name=ASSEMBLY_INT-CYCSYMM, cyclicsymmetry, adjust=YES
  *output, field, frequency=99999
  *output, history, variable=PRESELECT
  *elementoutput, directions=YES
  *initialconditions, type=TEMPERATURE
  *temperature, file=C:\Users\CJY\Desktop\turbine\StressMore\TurbineThermal.odb, midside
  *output, field, frequency=99999
  *output, history, variable=PRESELECT
  *elementoutput, directions=YES
  *initialconditions, type=TEMPERATURE

 ***WARNING: 107 nodes are used more than once as a slave node in *TIE keyword. 
             One of the *TIE constraints at each of these nodes have been 
             removed. The nodes have been identified in node set 
             WarnNodeOverconTieSlave.
  *output, field, frequency=99999
  *output, history, variable=PRESELECT
  *elementoutput, directions=YES
  
                               E L E M E N T   Q U A L I T Y  C H E C K S        
  
  
 ***NOTES: DISTORTED ISOPARAMETRIC ELEMENTS: ANGLE BETWEEN ISOPARAMETRIC LINES 
           IS LESS THAN 45 DEGREES OR GREATER THAN 135 DEGREES.
  
           TETRAHEDRAL QUALITY MEASURE: VOLUME OF TETRAHEDRON DIVIDED BY THE 
           VOLUME OF EQUILATERAL TETRAHEDRON WITH SAME CIRCUMSPHERE RADIUS; 
           0 FOR DEGENERATE TETRAHEDRON AND 1 FOR EQUILATERIAL TETRAHEDRON. IT 
           IS RECOMMENDED THAT THE TETRAHEDRAL QUALITY MEASURE BE GREATER THAN 
           0.02, THE MIN INTERIOR (DIHEDRAL) ANGLE BE GREATER THAN 10 DEGREES, 
           AND THE MAX INTERIOR (DIHEDRAL) ANGLE BE LESS THAN 160 DEGREES. 
  
           MODIFIED TETRAHEDRAL QUALITY MEASURE: ANGLES BETWEEN THE TWO LINE 
           SEGMENTS ON EACH EDGE; THE EDGES OF MODIFIED TETRAHEDRAL SHOULD BE 
           AS STRAIGHT AS POSSIBLE. IT IS RECOMMENDED THAT THE ANGLE BETWEEN 
           THE TWO LINE SEGMENTS ON EACH EDGE IS BETWEEN 160 AND 180 DEGREES. 
  
           TRIANGULAR QUALITY MEASURE: AREA OF TRIANGLE DIVIDED BY THE AREA OF 
           EQUILATERAL TRIANGLE WITH SAME CIRCUMCIRCLE RADIUS; 0 FOR DEGENERATE 
           TRIANGLE AND 1 FOR EQUILATERAL TRIANGLE. IT IS RECOMMENDED THAT THE
           TRIANGULAR QUALITY MEASURE BE GREATER THAN 0.01, THE MIN INTERIOR 
           ANGLE BE GREATER THAN 10 DEGREES, AND THE MAX INTERIOR ANGLE BE LESS 
           THAN 160 DEGREES. 
  
           NODAL ADJUSTMENTS ARISING FROM CONTACT INTERACTIONS AND/OR TIE 
           CONSTRAINTS CAN CAUSE SEVERE ELEMENT DISTORTION. IT MAY BE NECESSARY 
           TO REMESH IN ORDER TO REDUCE THE AMOUNT OF ADJUSTMENT. 

 ***WARNING: 4 elements are distorted. Either the isoparametric angles are out 
             of the suggested limits or the triangular or tetrahedral quality 
             measure is bad. The elements have been identified in element set 
             WarnElemDistorted.
  
 --------------------------------------------------------------------------------
 Distorted isoparametric elements
  
      Element        Min/max angle   Adjusted nodes 
 ------------------ ---------------- -------------- 
     PART-1-1.92314          41.6109       NO       
     PART-1-1.95848          32.3543       NO       
     PART-1-1.95921          41.1712       NO       
     PART-1-1.95940          32.0453       NO       
  
  
  *Step, name=Step-1, nlgeom=YES
  *output, field, frequency=99999
  *output, history, variable=PRESELECT
  *Step, name=Step-1, nlgeom=YES

 ***WARNING: NODE SET ASSEMBLY__PICKEDSET21 HAS NO MEMBERS AND WILL BE IGNORED. 
              NODES DEFINED IN THIS SET MAY HAVE BEEN DELETED BECAUSE THEY WERE 
             NOT CONNECTED TO ANY ELEMENTS.

 ***WARNING: NODE SET ASSEMBLY__PICKEDSET22 HAS NO MEMBERS AND WILL BE IGNORED. 
              NODES DEFINED IN THIS SET MAY HAVE BEEN DELETED BECAUSE THEY WERE 
             NOT CONNECTED TO ANY ELEMENTS.
  *Step, name=Step-1, nlgeom=YES
  *static
  *dload
  *dload
  *temperature, file=C:\Users\CJY\Desktop\turbine\StressMore\TurbineThermal.odb, midside
  *output, field, frequency=99999
  *nodeoutput
  *elementoutput, directions=YES
  *output, history, variable=PRESELECT
  *endstep
  *boundary
  *boundary
  *Step, name=Step-1, nlgeom=YES
  *static
  *temperature, file=C:\Users\CJY\Desktop\turbine\StressMore\TurbineThermal.odb, midside

 ***NOTE: MIDSIDE NODE INTERPOLATION HAS BEEN ACTIVATED FOR THIS STEP AND ALL 
          SUBSEQUENT STEPS
  *endstep

 ***NOTE: Searching for Nodal temperature : the program has found step 1, 
          increment 1 of the output database file 
          C:/Users/CJY/Desktop/turbine/StressMore/TurbineThermal.odb

 ***WARNING: DEGREE OF FREEDOM 3 IS NOT ACTIVE ON NODE 29727 INSTANCE PART-1-1 
             - THIS BOUNDARY CONDITION IS IGNORED

 ***WARNING: DEGREE OF FREEDOM 3 IS NOT ACTIVE ON NODE 29732 INSTANCE PART-1-1 
             - THIS BOUNDARY CONDITION IS IGNORED

 ***WARNING: DEGREE OF FREEDOM 3 IS NOT ACTIVE ON NODE 29737 INSTANCE PART-1-1 
             - THIS BOUNDARY CONDITION IS IGNORED

 ***WARNING: DEGREE OF FREEDOM 3 IS NOT ACTIVE ON NODE 29742 INSTANCE PART-1-1 
             - THIS BOUNDARY CONDITION IS IGNORED

 ***WARNING: DEGREE OF FREEDOM 3 IS NOT ACTIVE ON NODE 29747 INSTANCE PART-1-1 
             - THIS BOUNDARY CONDITION IS IGNORED

 ***WARNING: DEGREE OF FREEDOM 3 IS NOT ACTIVE ON NODE 29752 INSTANCE PART-1-1 
             - THIS BOUNDARY CONDITION IS IGNORED

 ***WARNING: DEGREE OF FREEDOM 3 IS NOT ACTIVE ON NODE 29757 INSTANCE PART-1-1 
             - THIS BOUNDARY CONDITION IS IGNORED

 ***WARNING: DEGREE OF FREEDOM 3 IS NOT ACTIVE ON NODE 29796 INSTANCE PART-1-1 
             - THIS BOUNDARY CONDITION IS IGNORED

 ***WARNING: DEGREE OF FREEDOM 3 IS NOT ACTIVE ON NODE 29807 INSTANCE PART-1-1 
             - THIS BOUNDARY CONDITION IS IGNORED

 ***WARNING: DEGREE OF FREEDOM 3 IS NOT ACTIVE ON NODE 29808 INSTANCE PART-1-1 
             - THIS BOUNDARY CONDITION IS IGNORED

 ***WARNING: DEGREE OF FREEDOM 3 IS NOT ACTIVE ON NODE 29811 INSTANCE PART-1-1 
             - THIS BOUNDARY CONDITION IS IGNORED

 ***NOTE: Boundary conditions are specified on inactive dof of 11 nodes. The 
          nodes have been identified in node set WarnNodeBCInactiveDof.


     MIDSIDE INTERPOLATION WILL BE USED



                            P R O B L E M   S I Z E


          NUMBER OF ELEMENTS IS                                 80751
          NUMBER OF NODES IS                                    94221
          NUMBER OF NODES DEFINED BY THE USER                   94221
          TOTAL NUMBER OF VARIABLES IN THE MODEL               282663
          (DEGREES OF FREEDOM PLUS MAX NO. OF ANY LAGRANGE MULTIPLIER
           VARIABLES. INCLUDE *PRINT,SOLVE=YES TO GET THE ACTUAL NUMBER.)



                              END OF USER INPUT PROCESSING



     JOB TIME SUMMARY
       USER TIME (SEC)      =   14.600    
       SYSTEM TIME (SEC)    =   2.2000    
       TOTAL CPU TIME (SEC) =   16.800    
       WALLCLOCK TIME (SEC) =         17
1

   Abaqus 2021                                  Date 30-7月-2022   Time 12:27:28
   For use by Supplied by Team-SolidSQUAD under license from Dassault Systemes or its subsidiary.

                                                                                               STEP    1  INCREMENT    1
                                                                                          TIME COMPLETED IN THIS STEP   0.00    


                        S T E P       1     S T A T I C   A N A L Y S I S


                                                                                          

     AUTOMATIC TIME CONTROL WITH -
          A SUGGESTED INITIAL TIME INCREMENT OF                 1.00    
          AND A TOTAL TIME PERIOD OF                            1.00    
          THE MINIMUM TIME INCREMENT ALLOWED IS                1.000E-05
          THE MAXIMUM TIME INCREMENT ALLOWED IS                 1.00    

     LINEAR EQUATION SOLVER TYPE         DIRECT SPARSE

          LARGE DISPLACEMENT THEORY WILL BE USED



                    TOTAL MASS OF MODEL

                      6.6132606E-03


                    LOCATION OF THE CENTER OF MASS OF THE MODEL

                       0.000000           0.000000           67.85177    


                    MOMENTS OF INERTIA ABOUT THE ORIGIN
                           I(XX)               I(YY)               I(ZZ)

                       57.47062           57.47062           51.72238    


                    PRODUCTS OF INERTIA ABOUT THE ORIGIN
                           I(XY)               I(XZ)               I(YZ)

                       0.000000           0.000000           0.000000    


                    MOMENTS OF INERTIA ABOUT THE CENTER OF MASS
                           I(XX)               I(YY)               I(ZZ)

                       27.02408           27.02408           51.72238    


                    PRODUCTS OF INERTIA ABOUT THE CENTER OF MASS
                           I(XY)               I(XZ)               I(YZ)

                       0.000000           0.000000           0.000000    
  
                   M E M O R Y   E S T I M A T E
  
 PROCESS      FLOATING PT       MINIMUM MEMORY        MEMORY TO
              OPERATIONS           REQUIRED          MINIMIZE I/O
             PER ITERATION           (MB)               (MB)
  
     1          2.86E+11              278               2222
  
 NOTE:
      (1) SINCE ABAQUS DOES NOT PRE-ALLOCATE MEMORY AND ONLY ALLOCATES MEMORY AS NEEDED DURING THE ANALYSIS,
          THE MEMORY REQUIREMENT PRINTED HERE CAN ONLY BE VIEWED AS A GENERAL GUIDELINE BASED ON THE BEST
          KNOWLEDGE AVAILABLE AT THE BEGINNING OF A STEP BEFORE THE SOLUTION PROCESS HAS BEGUN.
      (2) THE ESTIMATE IS NORMALLY UPDATED AT THE BEGINNING OF EVERY STEP. IT IS THE MAXIMUM VALUE OF THE
          ESTIMATE FROM THE CURRENT STEP TO THE LAST STEP OF THE ANALYSIS, WITH UNSYMMETRIC SOLUTION TAKEN
          INTO ACCOUNT IF APPLICABLE. 
      (3) SINCE THE ESTIMATE IS BASED ON THE ACTIVE DEGREES OF FREEDOM IN THE FIRST ITERATION OF THE 
          CURRENT STEP, THE MEMORY ESTIMATE MIGHT BE SIGNIFICANTLY DIFFERENT THAN ACTUAL USAGE FOR 
          PROBLEMS WITH SUBSTANTIAL CHANGES IN ACTIVE DEGREES OF FREEDOM BETWEEN STEPS (OR EVEN WITHIN
          THE SAME STEP). EXAMPLES ARE: PROBLEMS WITH SIGNIFICANT CONTACT CHANGES, PROBLEMS WITH MODEL
          CHANGE, PROBLEMS WITH BOTH STATIC STEP AND STEADY STATE DYNAMIC PROCEDURES WHERE ACOUSTIC 
          ELEMENTS WILL ONLY BE ACTIVATED IN THE STEADY STATE DYNAMIC STEPS.
      (4) FOR MULTI-PROCESS EXECUTION, THE ESTIMATED VALUE OF FLOATING POINT OPERATIONS FOR EACH PROCESS
          IS BASED ON AN INITIAL SCHEDULING OF OPERATIONS AND MIGHT NOT REFLECT THE ACTUAL FLOATING 
          POINT OPERATIONS COMPLETED ON EACH PROCESS. OPERATIONS ARE DYNAMICALLY BALANCED DURING EXECUTION, 
          SO THE ACTUAL BALANCE OF OPERATIONS BETWEEN PROCESSES IS EXPECTED TO BE BETTER THAN THE ESTIMATE
          PRINTED HERE.
      (5) THE UPPER LIMIT OF MEMORY THAT CAN BE ALLOCATED BY ABAQUS WILL IN GENERAL DEPEND ON THE VALUE OF
          THE "MEMORY" PARAMETER AND THE AMOUNT OF PHYSICAL MEMORY AVAILABLE ON THE MACHINE. PLEASE SEE
          THE "ABAQUS ANALYSIS USER'S MANUAL" FOR MORE DETAILS. THE ACTUAL USAGE OF MEMORY AND OF DISK
          SPACE FOR SCRATCH DATA WILL DEPEND ON THIS UPPER LIMIT AS WELL AS THE MEMORY REQUIRED TO MINIMIZE
          I/O. IF THE MEMORY UPPER LIMIT IS GREATER THAN THE MEMORY REQUIRED TO MINIMIZE I/O, THEN THE ACTUAL
          MEMORY USAGE WILL BE CLOSE TO THE ESTIMATED "MEMORY TO MINIMIZE I/O" VALUE, AND THE SCRATCH DISK
          USAGE WILL BE CLOSE-TO-ZERO; OTHERWISE, THE ACTUAL MEMORY USED WILL BE CLOSE TO THE PREVIOUSLY
          MENTIONED MEMORY LIMIT, AND THE SCRATCH DISK USAGE WILL BE ROUGHLY PROPORTIONAL TO THE DIFFERENCE
          BETWEEN THE ESTIMATED "MEMORY TO MINIMIZE I/O" AND THE MEMORY UPPER LIMIT. HOWEVER ACCURATE
          ESTIMATE OF THE SCRATCH DISK SPACE IS NOT POSSIBLE.
      (6) USING "*RESTART, WRITE" CAN GENERATE A LARGE AMOUNT OF DATA WRITTEN IN THE WORK DIRECTORY.


          THE ANALYSIS HAS BEEN COMPLETED



                              ANALYSIS COMPLETE
                              WITH    462 WARNING MESSAGES ON THE DAT FILE



     JOB TIME SUMMARY
       USER TIME (SEC)      =   118.10    
       SYSTEM TIME (SEC)    =   5.2000    
       TOTAL CPU TIME (SEC) =   123.30    
       WALLCLOCK TIME (SEC) =         29
