*HEADING

*NODE
       3,        102.1085983627617,      -5.9610446201456035,        43.73916364382536
       4,       102.13395329188128,      -5.9690536298372106,        43.57640940162795
      10,       102.09946738261317,       -5.832485672565796,       43.843522011743836
      93,       117.56661454020025,       -5.960784735538888,       43.739668579474795
      94,       117.54030382696376,       -5.969053620098257,       43.576409498147285
     103,       117.58951591698008,       -5.832416115590836,       43.843486679672736
     105,       102.15908760180072,       -5.855625504046329,        43.45936221524211
     114,       102.16740147942335,       -5.690152331426838,       43.465891855049094
     185,       117.52744025720168,        -5.85501224170782,       43.459122406451456
     193,       117.53661225243073,       -5.690149159975428,        43.46590017600618
     213,       102.12810557890649,      -5.2534964634943195,        43.85950842502831
     233,       102.11640512771042,       -4.673891146071035,        44.11083140617595
     255,       102.09349254528105,       -4.000340263819784,        44.43566125387275
     263,       102.05044746754334,      -3.2189554018241306,       44.881359064722346
     264,       101.99837771447568,        -2.51573368032438,        45.33445506885358
     273,       101.92505556435717,      -1.6898419215378602,       45.904507898601345
     275,        101.8194435218186,      -1.2430193005469257,        46.61154500587364
     283,       101.91256011808181,      -0.2967367769433781,        46.06903281669736
     284,        101.6637682762029,      -0.6857631670562978,        47.62734951163818
     293,       101.75164703881589,      0.40809276842627823,        47.08224324431104
** ... 1675 like lines cut
**
** SOLID ELEMENTS
**
*ELEMENT, TYPE=C3D8R, ELSET=Solid
   50596,      213,     1394,      114,      523,    41297,    41299,    37804,    37992
   50597,     1394,      213,      524,       10,    41299,    41297,    37821,    37778
   50598,      233,      213,      523,      533,    41308,    41297,    37992,    37993
   50599,      213,      233,      534,      524,    41297,    41308,    37822,    37821
   50600,      255,      233,      533,      543,    41306,    41308,    37993,    37994
   50601,      233,      255,      545,      534,    41308,    41306,    37824,    37822
   50602,      263,      255,      543,      553,    41305,    41306,    37994,    37997
   50603,      255,      263,      554,      545,    41306,    41305,    37826,    37824
   50604,      563,      264,      263,      553,    38000,    41319,    41305,    37997
   50605,      264,      573,      554,      263,    41319,    37830,    37826,    41305
   50606,      264,      563,      565,      273,    41319,    38000,    38005,    41316
   50608,      273,      275,      583,      573,    41316,    41312,    37836,    37830
   50609,      565,      283,      275,      273,    38005,    41321,    41312,    41316
   50612,      293,      284,      275,      283,    41324,    41322,    41312,    41321
   50613,      583,      284,      295,      585,    37836,    41322,    41325,    37845
   50614,      593,      293,      283,      574,    38023,    41324,    41321,    38012
   50615,      284,      293,      303,      295,    41322,    41324,    41330,    41325
   50616,      295,      304,      594,      585,    41325,    41331,    37852,    37845
   50617,      593,      313,      303,      293,    38023,    41335,    41330,    41324
   50618,      304,      295,      303,      315,    41331,    41325,    41330,    41337
** ... 840 like lines cut
*ELEMENT, TYPE=C3D6, ELSET=Solid
   45232,     1438,      735,      741,    41302,    37965,    37966
   45469,      735,     1438,      751,    37965,    41302,    37967
   45470,     1394,        3,        4,    41299,    37776,    37777
   50595,        3,     1394,       10,    37776,    41299,    37778
   50607,      573,      264,      273,    37830,    41319,    41316
   50610,      283,      565,      574,    41321,    38005,    38012
   50611,      284,      583,      275,    41322,    37836,    41312
   50619,      323,      594,      304,    41341,    37852,    41331
   50620,      313,      593,      603,    41335,    38023,    38034
   50632,      644,      373,      365,    37870,    41357,    41355
   50638,      635,      354,      383,    37868,    41354,    41347
   50648,      694,      403,      718,    38064,    41342,    38070
   50651,      869,      405,      720,    38079,    41339,    38078
   50652,     1438,     1314,      363,    41302,    38172,    37865
   50653,     1314,     1438,      741,    38172,    41302,    37966
   50654,      105,     1394,        4,    37803,    41299,    37777
   50655,     1394,      105,      114,    41299,    37803,    37804
   50656,    41302,    37965,    37966,    41336,    37968,    37969
   50657,    37965,    41302,    37967,    37968,    41336,    37970
   50658,    41299,    37776,    37777,    41327,    37779,    37780
** ... 345 like lines cut
**
** 
**
**
** 
**
**
** SECTION DATA
**
*SOLID SECTION, ELSET=Solid, MATERIAL=GH4169
**
** MATERIALS
**
**
**GH4169
**
*MATERIAL, NAME=GH4169
*DENSITY
                 8.24E-9,
*EXPANSION, TYPE=ISO, ZERO=20.
                 1.48E-5,
*ELASTIC, TYPE=ISOTROPIC
                 168000.,                     0.32
*CONDUCTIVITY, TYPE=ISO
                    21.2,
**
** 
**
**
** SURFACE DEFINITIONS 
**
*SURFACE, NAME=Pressure, TYPE=ELEMENT
   51817, S3
   51835, S3
   51841, S3
   51847, S3
   51875, S3
   51918, S3
   51924, S3
   51930, S3
   51945, S3
   51963, S3
   51969, S3
   51975, S3
   51990, S3
   52008, S3
   52014, S3
   52020, S3
   52035, S3
   52053, S3
   52059, S3
   52065, S3
** ... 963 like lines cut
** 
** SETS
** 
*NSET, NSET=Tie1-S
       3,        4,       10,      105,      114,      213,      233,      255,      263,      264,
     273,      275,      283,      284,      293,      295,      303,      304,      313,      315,
     323,      324,      333,      334,      343,      345,      353,      354,      363,      365,
     373,      374,      383,      385,      393,      394,      403,      405,      523,      524,
     533,      534,      543,      545,      553,      554,      563,      565,      573,      574,
     583,      585,      593,      594,      603,      605,      613,      614,      623,      625,
     633,      635,      643,      644,      653,      655,      663,      664,      694,      712,
     718,      720,      735,      741,      751,      869,     1314,     1394,     1438
*NSET, NSET=Tie2-S
      93,       94,      103,      185,      193,      726,      853,      854,      861,     1374,
    1375,     1380,     1381,     1386,     1390,     1395,     1399,     1401,     1404,     1406,
    1409,     1413,     1415,     1418,     1419,     1423,     1424,     1428,     1430,     1433,
    1434,     1439,     1443,     1445,     1449,     1453,     1455,     1458,     1460,     1463,
    1464,     1468,     1470,     1473,     1474,     1478,     1479,     1483,     1485,     1488,
    1490,     1493,     1494,     1498,     1500,     1503,     1504,     1508,     1510,    36124,
   36125,    36126,    36127,    36128,    36129,    36130,    36131,    36132,    36133,    36134,
   36135,    36136,    36137,    36138,    36139,    36140,    36141,    36142,    36143
*NSET, NSET=Tie3-S
   41215,    41216,    41217,    41218,    41219,    41220,    41221,    41222,    41223,    41224,
   41225,    41226,    41227,    41228,    41230,    41231,    41234,    41235,    41238,    41239,
   41243,    41244,    41248,    41249,    41252,    41253,    41256,    41258,    41261,    41263,
   41265,    41267,    41269,    41271,    41273,    41275,    41276,    41277,    41278,    41279,
   41280,    41281,    41282,    41283,    41284,    41285,    41286,    41287,    41288,    41289,
   41290,    41291,    41292,    41293,    41309,    41313,    41332,    41338,    41351
*NSET, NSET=Tie4-S
   41717,    41718,    41726,    41731,    41742,    41749,    41758,    41767,    41774,    41781,
   41782,    41783,    41784,    41785,    41786,    41787,    41824,    41825,    41826,    41863,
   41864,    41865,    41878,    41891,    42020,    42027,    42035,    42045,    42055,    42066,
   42078,    42091,    42102,    42105,    42106,    42107,    42108,    42109,    42110,    42111,
   42112,    42189,    42191,    42193,    42195,    42197,    42199,    42201,    42203,    42205,
   42206,    42208,    42209,    42211,    42213,    42214,    42215,    42216,    42217
*NSET, NSET=Temperature
       3,        4,       10,       93,       94,      103,      105,      114,      185,      193,
     363,      523,      524,      533,      534,      543,      545,      553,      554,      563,
     565,      573,      574,      583,      585,      593,      594,      603,      605,      613,
     614,      623,      625,      633,      635,      643,      644,      653,      655,      663,
     664,      694,      712,      718,      720,      726,      735,      741,      751,      853,
     854,      861,      869,     1314,     1374,     1375,     1380,     1381,     1386,     1390,
    1395,     1399,     1401,     1404,     1406,     1409,     1413,     1415,     1418,     1419,
    1463,     1464,     1468,     1470,     1473,     1474,     1478,     1479,     1483,     1485,
    1488,     1490,     1493,     1494,     1498,     1500,     1503,     1504,     1508,     1510,
   37776,    37777,    37778,    37779,    37780,    37781,    37782,    37783,    37784,    37785,
   37786,    37787,    37788,    37789,    37790,    37791,    37792,    37793,    37794,    37795,
   37796,    37797,    37798,    37799,    37800,    37801,    37802,    37803,    37804,    37805,
   37806,    37807,    37808,    37809,    37810,    37811,    37812,    37813,    37814,    37815,
   37816,    37817,    37818,    37819,    37820,    37821,    37822,    37823,    37824,    37825,
   37826,    37827,    37828,    37829,    37830,    37831,    37832,    37833,    37834,    37835,
   37836,    37837,    37838,    37839,    37840,    37841,    37842,    37843,    37844,    37845,
   37846,    37847,    37848,    37849,    37850,    37851,    37852,    37853,    37854,    37855,
   37856,    37857,    37858,    37859,    37860,    37861,    37862,    37863,    37864,    37865,
   37866,    37867,    37868,    37869,    37870,    37871,    37872,    37873,    37874,    37875,
   37876,    37877,    37878,    37879,    37880,    37881,    37882,    37883,    37884,    37885,
** ... 87 like lines cut
